
     RDKit          

 28 30  0  0  0  0  0  0  0  0999 V2000
    0.0000    0.0000    0.0000 C   0  0  0  0  0  0  0  0  0  0  0  0
    0.0000    0.0000    0.0000 C   0  0  0  0  0  0  0  0  0  0  0  0
    0.0000    0.0000    0.0000 N   0  0  0  0  0  0  0  0  0  0  0  0
    0.0000    0.0000    0.0000 C   0  0  0  0  0  0  0  0  0  0  0  0
    0.0000    0.0000    0.0000 C   0  0  0  0  0  0  0  0  0  0  0  0
    0.0000    0.0000    0.0000 C   0  0  0  0  0  0  0  0  0  0  0  0
    0.0000    0.0000    0.0000 O   0  0  0  0  0  0  0  0  0  0  0  0
    0.0000    0.0000    0.0000 C   0  0  0  0  0  0  0  0  0  0  0  0
    0.0000    0.0000    0.0000 C   0  0  0  0  0  0  0  0  0  0  0  0
    0.0000    0.0000    0.0000 C   0  0  0  0  0  0  0  0  0  0  0  0
    0.0000    0.0000    0.0000 C   0  0  0  0  0  0  0  0  0  0  0  0
    0.0000    0.0000    0.0000 C   0  0  0  0  0  0  0  0  0  0  0  0
    0.0000    0.0000    0.0000 C   0  0  0  0  0  0  0  0  0  0  0  0
    0.0000    0.0000    0.0000 C   0  0  0  0  0  0  0  0  0  0  0  0
    0.0000    0.0000    0.0000 C   0  0  0  0  0  0  0  0  0  0  0  0
    0.0000    0.0000    0.0000 C   0  0  0  0  0  0  0  0  0  0  0  0
    0.0000    0.0000    0.0000 C   0  0  0  0  0  0  0  0  0  0  0  0
    0.0000    0.0000    0.0000 N   0  0  0  0  0  0  0  0  0  0  0  0
    0.0000    0.0000    0.0000 C   0  0  0  0  0  0  0  0  0  0  0  0
    0.0000    0.0000    0.0000 C   0  0  0  0  0  0  0  0  0  0  0  0
    0.0000    0.0000    0.0000 C   0  0  0  0  0  0  0  0  0  0  0  0
    0.0000    0.0000    0.0000 C   0  0  0  0  0  0  0  0  0  0  0  0
    0.0000    0.0000    0.0000 C   0  0  0  0  0  0  0  0  0  0  0  0
    0.0000    0.0000    0.0000 C   0  0  0  0  0  0  0  0  0  0  0  0
    0.0000    0.0000    0.0000 C   0  0  0  0  0  0  0  0  0  0  0  0
    0.0000    0.0000    0.0000 O   0  0  0  0  0  0  0  0  0  0  0  0
    0.0000    0.0000    0.0000 C   0  0  0  0  0  0  0  0  0  0  0  0
    0.0000    0.0000    0.0000 C   0  0  0  0  0  0  0  0  0  0  0  0
  1  2  1  0
  2  3  1  0
  3  4  1  0
  4  5  1  0
  3  6  1  0
  6  7  2  0
  6  8  1  0
  8  9  2  0
  9 10  1  0
 10 11  2  0
 11 12  1  0
 12 13  2  0
 11 14  1  0
 14 15  2  3
 15 16  1  0
 16 17  1  0
 17 18  1  0
 18 19  1  0
 19 20  1  0
 14 21  1  0
 21 22  2  0
 22 23  1  0
 23 24  2  0
 24 25  1  0
 25 26  1  0
 26 27  1  0
 25 28  2  0
 13  8  1  0
 20 15  1  0
 28 21  1  0
M  END
>  <pIC50>  (1) 
5.28

>  <ChEMBL_ID>  (1) 
CHEMBL423694

>  <document_journal>  (1) 
J. Med. Chem.

>  <bao_endpoint>  (1) 
BAO_0000190

>  <potential_duplicate>  (1) 
False

>  <uo_units>  (1) 
UO_0000065

>  <canonical_smiles>  (1) 
CCN(CC)C(=O)c1ccc(cc1)C(=C2CCNCC2)c3cccc(OC)c3

>  <parent_molecule_chembl_id>  (1) 
CHEMBL423694

>  <assay_type>  (1) 
B

>  <src_id>  (1) 
1

>  <ligand_efficiency>  (1) 
{u'le': u'0.26', u'bei': u'13.95', u'sei': u'12.7', u'lle': u'1.51'}

>  <standard_flag>  (1) 
True

>  <molecule_chembl_id>  (1) 
CHEMBL423694

>  <target_organism>  (1) 
Homo sapiens

>  <standard_units>  (1) 
nM

>  <record_id>  (1) 
243053

>  <document_chembl_id>  (1) 
CHEMBL1133469

>  <bao_format>  (1) 
BAO_0000219

>  <data_validity_description>  (1) 
None

>  <activity_id>  (1) 
32544

>  <standard_type>  (1) 
IC50

>  <target_chembl_id>  (1) 
CHEMBL233

>  <data_validity_comment>  (1) 
None

>  <published_value>  (1) 
5250

>  <document_year>  (1) 
2000

>  <target_pref_name>  (1) 
Mu opioid receptor

>  <assay_chembl_id>  (1) 
CHEMBL749749

>  <standard_relation>  (1) 
=

>  <assay_description>  (1) 
Binding affinity on cloned opioid receptor mu 1 in human HEK293S cells using [125I]FK33824 as radioligand.

>  <published_relation>  (1) 
=

>  <standard_value>  (1) 
5250

>  <qudt_units>  (1) 
http://www.openphacts.org/units/Nanomolar

>  <target_tax_id>  (1) 
9606

>  <bao_label>  (1) 
cell-based format

>  <published_units>  (1) 
nM

>  <pchembl_value>  (1) 
5.28

>  <published_type>  (1) 
IC50

>  <activity_comment>  (1) 
None

$$$$

     RDKit          

 28 30  0  0  0  0  0  0  0  0999 V2000
    0.0000    0.0000    0.0000 C   0  0  0  0  0  0  0  0  0  0  0  0
    0.0000    0.0000    0.0000 C   0  0  0  0  0  0  0  0  0  0  0  0
    0.0000    0.0000    0.0000 N   0  0  0  0  0  0  0  0  0  0  0  0
    0.0000    0.0000    0.0000 C   0  0  0  0  0  0  0  0  0  0  0  0
    0.0000    0.0000    0.0000 C   0  0  0  0  0  0  0  0  0  0  0  0
    0.0000    0.0000    0.0000 C   0  0  0  0  0  0  0  0  0  0  0  0
    0.0000    0.0000    0.0000 O   0  0  0  0  0  0  0  0  0  0  0  0
    0.0000    0.0000    0.0000 C   0  0  0  0  0  0  0  0  0  0  0  0
    0.0000    0.0000    0.0000 C   0  0  0  0  0  0  0  0  0  0  0  0
    0.0000    0.0000    0.0000 C   0  0  0  0  0  0  0  0  0  0  0  0
    0.0000    0.0000    0.0000 C   0  0  0  0  0  0  0  0  0  0  0  0
    0.0000    0.0000    0.0000 C   0  0  0  0  0  0  0  0  0  0  0  0
    0.0000    0.0000    0.0000 C   0  0  0  0  0  0  0  0  0  0  0  0
    0.0000    0.0000    0.0000 C   0  0  0  0  0  0  0  0  0  0  0  0
    0.0000    0.0000    0.0000 C   0  0  0  0  0  0  0  0  0  0  0  0
    0.0000    0.0000    0.0000 C   0  0  0  0  0  0  0  0  0  0  0  0
    0.0000    0.0000    0.0000 C   0  0  0  0  0  0  0  0  0  0  0  0
    0.0000    0.0000    0.0000 N   0  0  0  0  0  0  0  0  0  0  0  0
    0.0000    0.0000    0.0000 C   0  0  0  0  0  0  0  0  0  0  0  0
    0.0000    0.0000    0.0000 C   0  0  0  0  0  0  0  0  0  0  0  0
    0.0000    0.0000    0.0000 C   0  0  0  0  0  0  0  0  0  0  0  0
    0.0000    0.0000    0.0000 C   0  0  0  0  0  0  0  0  0  0  0  0
    0.0000    0.0000    0.0000 C   0  0  0  0  0  0  0  0  0  0  0  0
    0.0000    0.0000    0.0000 C   0  0  0  0  0  0  0  0  0  0  0  0
    0.0000    0.0000    0.0000 C   0  0  0  0  0  0  0  0  0  0  0  0
    0.0000    0.0000    0.0000 C   0  0  0  0  0  0  0  0  0  0  0  0
    0.0000    0.0000    0.0000 O   0  0  0  0  0  0  0  0  0  0  0  0
    0.0000    0.0000    0.0000 C   0  0  0  0  0  0  0  0  0  0  0  0
  1  2  1  0
  2  3  1  0
  3  4  1  0
  4  5  1  0
  3  6  1  0
  6  7  2  0
  6  8  1  0
  8  9  2  0
  9 10  1  0
 10 11  2  0
 11 12  1  0
 12 13  2  0
 11 14  1  0
 14 15  2  3
 15 16  1  0
 16 17  1  0
 17 18  1  0
 18 19  1  0
 19 20  1  0
 14 21  1  0
 21 22  2  0
 22 23  1  0
 23 24  2  0
 24 25  1  0
 25 26  2  0
 26 27  1  0
 27 28  1  0
 13  8  1  0
 20 15  1  0
 26 21  1  0
M  END
>  <pIC50>  (2) 
5.46

>  <ChEMBL_ID>  (2) 
CHEMBL278078

>  <document_journal>  (2) 
J. Med. Chem.

>  <bao_endpoint>  (2) 
BAO_0000190

>  <potential_duplicate>  (2) 
False

>  <uo_units>  (2) 
UO_0000065

>  <canonical_smiles>  (2) 
CCN(CC)C(=O)c1ccc(cc1)C(=C2CCNCC2)c3ccccc3OC

>  <parent_molecule_chembl_id>  (2) 
CHEMBL278078

>  <assay_type>  (2) 
B

>  <src_id>  (2) 
1

>  <ligand_efficiency>  (2) 
{u'le': u'0.27', u'bei': u'14.42', u'sei': u'13.13', u'lle': u'1.69'}

>  <standard_flag>  (2) 
True

>  <molecule_chembl_id>  (2) 
CHEMBL278078

>  <target_organism>  (2) 
Homo sapiens

>  <standard_units>  (2) 
nM

>  <record_id>  (2) 
243037

>  <document_chembl_id>  (2) 
CHEMBL1133469

>  <bao_format>  (2) 
BAO_0000219

>  <data_validity_description>  (2) 
None

>  <activity_id>  (2) 
33756

>  <standard_type>  (2) 
IC50

>  <target_chembl_id>  (2) 
CHEMBL233

>  <data_validity_comment>  (2) 
None

>  <published_value>  (2) 
3480

>  <document_year>  (2) 
2000

>  <target_pref_name>  (2) 
Mu opioid receptor

>  <assay_chembl_id>  (2) 
CHEMBL749749

>  <standard_relation>  (2) 
=

>  <assay_description>  (2) 
Binding affinity on cloned opioid receptor mu 1 in human HEK293S cells using [125I]FK33824 as radioligand.

>  <published_relation>  (2) 
=

>  <standard_value>  (2) 
3480

>  <qudt_units>  (2) 
http://www.openphacts.org/units/Nanomolar

>  <target_tax_id>  (2) 
9606

>  <bao_label>  (2) 
cell-based format

>  <published_units>  (2) 
nM

>  <pchembl_value>  (2) 
5.46

>  <published_type>  (2) 
IC50

>  <activity_comment>  (2) 
None

$$$$

     RDKit          

 33 35  0  0  0  0  0  0  0  0999 V2000
    0.0000    0.0000    0.0000 C   0  0  0  0  0  0  0  0  0  0  0  0
    0.0000    0.0000    0.0000 C   0  0  0  0  0  0  0  0  0  0  0  0
    0.0000    0.0000    0.0000 N   0  0  0  0  0  0  0  0  0  0  0  0
    0.0000    0.0000    0.0000 C   0  0  0  0  0  0  0  0  0  0  0  0
    0.0000    0.0000    0.0000 C   0  0  0  0  0  0  0  0  0  0  0  0
    0.0000    0.0000    0.0000 C   0  0  0  0  0  0  0  0  0  0  0  0
    0.0000    0.0000    0.0000 O   0  0  0  0  0  0  0  0  0  0  0  0
    0.0000    0.0000    0.0000 C   0  0  0  0  0  0  0  0  0  0  0  0
    0.0000    0.0000    0.0000 C   0  0  0  0  0  0  0  0  0  0  0  0
    0.0000    0.0000    0.0000 C   0  0  0  0  0  0  0  0  0  0  0  0
    0.0000    0.0000    0.0000 C   0  0  0  0  0  0  0  0  0  0  0  0
    0.0000    0.0000    0.0000 C   0  0  0  0  0  0  0  0  0  0  0  0
    0.0000    0.0000    0.0000 C   0  0  0  0  0  0  0  0  0  0  0  0
    0.0000    0.0000    0.0000 C   0  0  0  0  0  0  0  0  0  0  0  0
    0.0000    0.0000    0.0000 N   0  0  0  0  0  0  0  0  0  0  0  0
    0.0000    0.0000    0.0000 C   0  0  0  0  0  0  0  0  0  0  0  0
    0.0000    0.0000    0.0000 C   0  0  0  0  0  0  0  0  0  0  0  0
    0.0000    0.0000    0.0000 C   0  0  0  0  0  0  0  0  0  0  0  0
    0.0000    0.0000    0.0000 N   0  0  0  0  0  0  0  0  0  0  0  0
    0.0000    0.0000    0.0000 C   0  0  0  0  0  0  0  0  0  0  0  0
    0.0000    0.0000    0.0000 C   0  0  0  0  0  0  0  0  0  0  0  0
    0.0000    0.0000    0.0000 C   0  0  0  0  0  0  0  0  0  0  0  0
    0.0000    0.0000    0.0000 C   0  0  0  0  0  0  0  0  0  0  0  0
    0.0000    0.0000    0.0000 C   0  0  0  0  0  0  0  0  0  0  0  0
    0.0000    0.0000    0.0000 C   0  0  0  0  0  0  0  0  0  0  0  0
    0.0000    0.0000    0.0000 C   0  0  0  0  0  0  0  0  0  0  0  0
    0.0000    0.0000    0.0000 C   0  0  0  0  0  0  0  0  0  0  0  0
    0.0000    0.0000    0.0000 C   0  0  0  0  0  0  0  0  0  0  0  0
    0.0000    0.0000    0.0000 C   0  0  0  0  0  0  0  0  0  0  0  0
    0.0000    0.0000    0.0000 C   0  0  0  0  0  0  0  0  0  0  0  0
    0.0000    0.0000    0.0000 O   0  0  0  0  0  0  0  0  0  0  0  0
    0.0000    0.0000    0.0000 C   0  0  0  0  0  0  0  0  0  0  0  0
    0.0000    0.0000    0.0000 C   0  0  0  0  0  0  0  0  0  0  0  0
  1  2  1  0
  2  3  1  0
  3  4  1  0
  4  5  1  0
  3  6  1  0
  6  7  2  0
  6  8  1  0
  8  9  2  0
  9 10  1  0
 10 11  2  0
 11 12  1  0
 12 13  2  0
 11 14  1  0
 14 15  1  0
 15 16  1  0
 16 17  1  0
 17 18  1  0
 17 19  1  0
 19 20  1  0
 20 21  1  0
 21 22  2  0
 19 23  1  0
 23 24  1  0
 24 25  1  0
 14 26  1  0
 26 27  2  0
 27 28  1  0
 28 29  2  0
 29 30  1  0
 30 31  1  0
 31 32  1  0
 30 33  2  0
 13  8  1  0
 24 15  1  0
 33 26  1  0
M  END
>  <pIC50>  (3) 
6.10666666667

>  <ChEMBL_ID>  (3) 
CHEMBL13470

>  <document_journal>  (3) 
J. Med. Chem.

>  <bao_endpoint>  (3) 
BAO_0000190

>  <potential_duplicate>  (3) 
False

>  <uo_units>  (3) 
UO_0000065

>  <canonical_smiles>  (3) 
CCN(CC)C(=O)c1ccc(cc1)[C@@H](N2C[C@@H](C)N(CC=C)C[C@@H]2C)c3cccc(OC)c3

>  <parent_molecule_chembl_id>  (3) 
CHEMBL13470

>  <assay_type>  (3) 
B

>  <src_id>  (3) 
1

>  <ligand_efficiency>  (3) 
{u'le': u'0.27', u'bei': u'14.44', u'sei': u'18.03', u'lle': u'1.55'}

>  <standard_flag>  (3) 
True

>  <molecule_chembl_id>  (3) 
CHEMBL13470

>  <target_organism>  (3) 
Homo sapiens

>  <standard_units>  (3) 
nM

>  <record_id>  (3) 
243034

>  <document_chembl_id>  (3) 
CHEMBL1133469

>  <bao_format>  (3) 
BAO_0000219

>  <data_validity_description>  (3) 
None

>  <activity_id>  (3) 
38634

>  <standard_type>  (3) 
IC50

>  <target_chembl_id>  (3) 
CHEMBL233

>  <data_validity_comment>  (3) 
None

>  <published_value>  (3) 
320

>  <document_year>  (3) 
2000

>  <target_pref_name>  (3) 
Mu opioid receptor

>  <assay_chembl_id>  (3) 
CHEMBL749749

>  <standard_relation>  (3) 
=

>  <assay_description>  (3) 
Binding affinity on cloned opioid receptor mu 1 in human HEK293S cells using [125I]FK33824 as radioligand.

>  <published_relation>  (3) 
=

>  <standard_value>  (3) 
320

>  <qudt_units>  (3) 
http://www.openphacts.org/units/Nanomolar

>  <target_tax_id>  (3) 
9606

>  <bao_label>  (3) 
cell-based format

>  <published_units>  (3) 
nM

>  <pchembl_value>  (3) 
6.5

>  <published_type>  (3) 
IC50

>  <activity_comment>  (3) 
None

$$$$

     RDKit          

 30 32  0  0  0  0  0  0  0  0999 V2000
    0.0000    0.0000    0.0000 C   0  0  0  0  0  0  0  0  0  0  0  0
    0.0000    0.0000    0.0000 C   0  0  0  0  0  0  0  0  0  0  0  0
    0.0000    0.0000    0.0000 C   0  0  0  0  0  0  0  0  0  0  0  0
    0.0000    0.0000    0.0000 C   0  0  0  0  0  0  0  0  0  0  0  0
    0.0000    0.0000    0.0000 N   0  0  0  0  0  0  0  0  0  0  0  0
    0.0000    0.0000    0.0000 C   0  0  0  0  0  0  0  0  0  0  0  0
    0.0000    0.0000    0.0000 C   0  0  0  0  0  0  0  0  0  0  0  0
    0.0000    0.0000    0.0000 C   0  0  0  0  0  0  0  0  0  0  0  0
    0.0000    0.0000    0.0000 C   0  0  0  0  0  0  0  0  0  0  0  0
    0.0000    0.0000    0.0000 C   0  0  0  0  0  0  0  0  0  0  0  0
    0.0000    0.0000    0.0000 C   0  0  0  0  0  0  0  0  0  0  0  0
    0.0000    0.0000    0.0000 C   0  0  0  0  0  0  0  0  0  0  0  0
    0.0000    0.0000    0.0000 C   0  0  0  0  0  0  0  0  0  0  0  0
    0.0000    0.0000    0.0000 C   0  0  0  0  0  0  0  0  0  0  0  0
    0.0000    0.0000    0.0000 C   0  0  0  0  0  0  0  0  0  0  0  0
    0.0000    0.0000    0.0000 C   0  0  0  0  0  0  0  0  0  0  0  0
    0.0000    0.0000    0.0000 C   0  0  0  0  0  0  0  0  0  0  0  0
    0.0000    0.0000    0.0000 C   0  0  0  0  0  0  0  0  0  0  0  0
    0.0000    0.0000    0.0000 C   0  0  0  0  0  0  0  0  0  0  0  0
    0.0000    0.0000    0.0000 C   0  0  0  0  0  0  0  0  0  0  0  0
    0.0000    0.0000    0.0000 C   0  0  0  0  0  0  0  0  0  0  0  0
    0.0000    0.0000    0.0000 C   0  0  0  0  0  0  0  0  0  0  0  0
    0.0000    0.0000    0.0000 O   0  0  0  0  0  0  0  0  0  0  0  0
    0.0000    0.0000    0.0000 N   0  0  0  0  0  0  0  0  0  0  0  0
    0.0000    0.0000    0.0000 C   0  0  0  0  0  0  0  0  0  0  0  0
    0.0000    0.0000    0.0000 C   0  0  0  0  0  0  0  0  0  0  0  0
    0.0000    0.0000    0.0000 C   0  0  0  0  0  0  0  0  0  0  0  0
    0.0000    0.0000    0.0000 C   0  0  0  0  0  0  0  0  0  0  0  0
    0.0000    0.0000    0.0000 C   0  0  0  0  0  0  0  0  0  0  0  0
    0.0000    0.0000    0.0000 C   0  0  0  0  0  0  0  0  0  0  0  0
  1  2  1  0
  2  3  1  0
  3  4  1  0
  4  5  1  0
  5  6  1  0
  6  7  1  0
  7  8  1  0
  8  9  2  3
  9 10  1  0
 10 11  2  0
 11 12  1  0
 12 13  2  0
 13 14  1  0
 14 15  2  0
  9 16  1  0
 16 17  2  0
 17 18  1  0
 18 19  2  0
 19 20  1  0
 20 21  2  0
 19 22  1  0
 22 23  2  0
 22 24  1  0
 24 25  1  0
 25 26  1  0
 24 27  1  0
 27 28  1  0
  8 29  1  0
 29 30  1  0
 30  5  1  0
 15 10  1  0
 21 16  1  0
M  END
>  <pIC50>  (4) 
5.38

>  <ChEMBL_ID>  (4) 
CHEMBL127802

>  <document_journal>  (4) 
J. Med. Chem.

>  <bao_endpoint>  (4) 
BAO_0000190

>  <potential_duplicate>  (4) 
False

>  <uo_units>  (4) 
UO_0000065

>  <canonical_smiles>  (4) 
CCCCN1CCC(=C(c2ccccc2)c3ccc(cc3)C(=O)N(CC)CC)CC1

>  <parent_molecule_chembl_id>  (4) 
CHEMBL127802

>  <assay_type>  (4) 
B

>  <src_id>  (4) 
1

>  <ligand_efficiency>  (4) 
{u'le': u'0.25', u'bei': u'13.31', u'sei': u'22.86', u'lle': u'-0.27'}

>  <standard_flag>  (4) 
True

>  <molecule_chembl_id>  (4) 
CHEMBL127802

>  <target_organism>  (4) 
Homo sapiens

>  <standard_units>  (4) 
nM

>  <record_id>  (4) 
243046

>  <document_chembl_id>  (4) 
CHEMBL1133469

>  <bao_format>  (4) 
BAO_0000219

>  <data_validity_description>  (4) 
None

>  <activity_id>  (4) 
38643

>  <standard_type>  (4) 
IC50

>  <target_chembl_id>  (4) 
CHEMBL233

>  <data_validity_comment>  (4) 
None

>  <published_value>  (4) 
4130

>  <document_year>  (4) 
2000

>  <target_pref_name>  (4) 
Mu opioid receptor

>  <assay_chembl_id>  (4) 
CHEMBL749749

>  <standard_relation>  (4) 
=

>  <assay_description>  (4) 
Binding affinity on cloned opioid receptor mu 1 in human HEK293S cells using [125I]FK33824 as radioligand.

>  <published_relation>  (4) 
=

>  <standard_value>  (4) 
4130

>  <qudt_units>  (4) 
http://www.openphacts.org/units/Nanomolar

>  <target_tax_id>  (4) 
9606

>  <bao_label>  (4) 
cell-based format

>  <published_units>  (4) 
nM

>  <pchembl_value>  (4) 
5.38

>  <published_type>  (4) 
IC50

>  <activity_comment>  (4) 
None

$$$$

     RDKit          

 26 28  0  0  0  0  0  0  0  0999 V2000
    0.0000    0.0000    0.0000 C   0  0  0  0  0  0  0  0  0  0  0  0
    0.0000    0.0000    0.0000 C   0  0  0  0  0  0  0  0  0  0  0  0
    0.0000    0.0000    0.0000 N   0  0  0  0  0  0  0  0  0  0  0  0
    0.0000    0.0000    0.0000 C   0  0  0  0  0  0  0  0  0  0  0  0
    0.0000    0.0000    0.0000 C   0  0  0  0  0  0  0  0  0  0  0  0
    0.0000    0.0000    0.0000 C   0  0  0  0  0  0  0  0  0  0  0  0
    0.0000    0.0000    0.0000 O   0  0  0  0  0  0  0  0  0  0  0  0
    0.0000    0.0000    0.0000 C   0  0  0  0  0  0  0  0  0  0  0  0
    0.0000    0.0000    0.0000 C   0  0  0  0  0  0  0  0  0  0  0  0
    0.0000    0.0000    0.0000 C   0  0  0  0  0  0  0  0  0  0  0  0
    0.0000    0.0000    0.0000 C   0  0  0  0  0  0  0  0  0  0  0  0
    0.0000    0.0000    0.0000 C   0  0  0  0  0  0  0  0  0  0  0  0
    0.0000    0.0000    0.0000 C   0  0  0  0  0  0  0  0  0  0  0  0
    0.0000    0.0000    0.0000 C   0  0  0  0  0  0  0  0  0  0  0  0
    0.0000    0.0000    0.0000 N   0  0  0  0  0  0  0  0  0  0  0  0
    0.0000    0.0000    0.0000 C   0  0  0  0  0  0  0  0  0  0  0  0
    0.0000    0.0000    0.0000 C   0  0  0  0  0  0  0  0  0  0  0  0
    0.0000    0.0000    0.0000 N   0  0  0  0  0  0  0  0  0  0  0  0
    0.0000    0.0000    0.0000 C   0  0  0  0  0  0  0  0  0  0  0  0
    0.0000    0.0000    0.0000 C   0  0  0  0  0  0  0  0  0  0  0  0
    0.0000    0.0000    0.0000 C   0  0  0  0  0  0  0  0  0  0  0  0
    0.0000    0.0000    0.0000 C   0  0  0  0  0  0  0  0  0  0  0  0
    0.0000    0.0000    0.0000 C   0  0  0  0  0  0  0  0  0  0  0  0
    0.0000    0.0000    0.0000 C   0  0  0  0  0  0  0  0  0  0  0  0
    0.0000    0.0000    0.0000 C   0  0  0  0  0  0  0  0  0  0  0  0
    0.0000    0.0000    0.0000 C   0  0  0  0  0  0  0  0  0  0  0  0
  1  2  1  0
  2  3  1  0
  3  4  1  0
  4  5  1  0
  3  6  1  0
  6  7  2  0
  6  8  1  0
  8  9  2  0
  9 10  1  0
 10 11  2  0
 11 12  1  0
 12 13  2  0
 11 14  1  0
 14 15  1  0
 15 16  1  0
 16 17  1  0
 17 18  1  0
 18 19  1  0
 19 20  1  0
 14 21  1  0
 21 22  2  0
 22 23  1  0
 23 24  2  0
 24 25  1  0
 25 26  2  0
 13  8  1  0
 20 15  1  0
 26 21  1  0
M  END
>  <pIC50>  (5) 
5.09

>  <ChEMBL_ID>  (5) 
CHEMBL338980

>  <document_journal>  (5) 
J. Med. Chem.

>  <bao_endpoint>  (5) 
BAO_0000190

>  <potential_duplicate>  (5) 
False

>  <uo_units>  (5) 
UO_0000065

>  <canonical_smiles>  (5) 
CCN(CC)C(=O)c1ccc(cc1)C(N2CCNCC2)c3ccccc3

>  <parent_molecule_chembl_id>  (5) 
CHEMBL338980

>  <assay_type>  (5) 
B

>  <src_id>  (5) 
1

>  <ligand_efficiency>  (5) 
{u'le': u'0.27', u'bei': u'14.48', u'sei': u'14.3', u'lle': u'2.04'}

>  <standard_flag>  (5) 
True

>  <molecule_chembl_id>  (5) 
CHEMBL338980

>  <target_organism>  (5) 
Homo sapiens

>  <standard_units>  (5) 
nM

>  <record_id>  (5) 
243059

>  <document_chembl_id>  (5) 
CHEMBL1133469

>  <bao_format>  (5) 
BAO_0000219

>  <data_validity_description>  (5) 
None

>  <activity_id>  (5) 
40959

>  <standard_type>  (5) 
IC50

>  <target_chembl_id>  (5) 
CHEMBL233

>  <data_validity_comment>  (5) 
None

>  <published_value>  (5) 
8150

>  <document_year>  (5) 
2000

>  <target_pref_name>  (5) 
Mu opioid receptor

>  <assay_chembl_id>  (5) 
CHEMBL749749

>  <standard_relation>  (5) 
=

>  <assay_description>  (5) 
Binding affinity on cloned opioid receptor mu 1 in human HEK293S cells using [125I]FK33824 as radioligand.

>  <published_relation>  (5) 
=

>  <standard_value>  (5) 
8150

>  <qudt_units>  (5) 
http://www.openphacts.org/units/Nanomolar

>  <target_tax_id>  (5) 
9606

>  <bao_label>  (5) 
cell-based format

>  <published_units>  (5) 
nM

>  <pchembl_value>  (5) 
5.09

>  <published_type>  (5) 
IC50

>  <activity_comment>  (5) 
None

$$$$

     RDKit          

 26 28  0  0  0  0  0  0  0  0999 V2000
    0.0000    0.0000    0.0000 C   0  0  0  0  0  0  0  0  0  0  0  0
    0.0000    0.0000    0.0000 C   0  0  0  0  0  0  0  0  0  0  0  0
    0.0000    0.0000    0.0000 N   0  0  0  0  0  0  0  0  0  0  0  0
    0.0000    0.0000    0.0000 C   0  0  0  0  0  0  0  0  0  0  0  0
    0.0000    0.0000    0.0000 C   0  0  0  0  0  0  0  0  0  0  0  0
    0.0000    0.0000    0.0000 C   0  0  0  0  0  0  0  0  0  0  0  0
    0.0000    0.0000    0.0000 O   0  0  0  0  0  0  0  0  0  0  0  0
    0.0000    0.0000    0.0000 C   0  0  0  0  0  0  0  0  0  0  0  0
    0.0000    0.0000    0.0000 C   0  0  0  0  0  0  0  0  0  0  0  0
    0.0000    0.0000    0.0000 C   0  0  0  0  0  0  0  0  0  0  0  0
    0.0000    0.0000    0.0000 C   0  0  0  0  0  0  0  0  0  0  0  0
    0.0000    0.0000    0.0000 C   0  0  0  0  0  0  0  0  0  0  0  0
    0.0000    0.0000    0.0000 C   0  0  0  0  0  0  0  0  0  0  0  0
    0.0000    0.0000    0.0000 C   0  0  0  0  0  0  0  0  0  0  0  0
    0.0000    0.0000    0.0000 C   0  0  0  0  0  0  0  0  0  0  0  0
    0.0000    0.0000    0.0000 C   0  0  0  0  0  0  0  0  0  0  0  0
    0.0000    0.0000    0.0000 C   0  0  0  0  0  0  0  0  0  0  0  0
    0.0000    0.0000    0.0000 N   0  0  0  0  0  0  0  0  0  0  0  0
    0.0000    0.0000    0.0000 C   0  0  0  0  0  0  0  0  0  0  0  0
    0.0000    0.0000    0.0000 C   0  0  0  0  0  0  0  0  0  0  0  0
    0.0000    0.0000    0.0000 C   0  0  0  0  0  0  0  0  0  0  0  0
    0.0000    0.0000    0.0000 C   0  0  0  0  0  0  0  0  0  0  0  0
    0.0000    0.0000    0.0000 C   0  0  0  0  0  0  0  0  0  0  0  0
    0.0000    0.0000    0.0000 C   0  0  0  0  0  0  0  0  0  0  0  0
    0.0000    0.0000    0.0000 C   0  0  0  0  0  0  0  0  0  0  0  0
    0.0000    0.0000    0.0000 C   0  0  0  0  0  0  0  0  0  0  0  0
  1  2  1  0
  2  3  1  0
  3  4  1  0
  4  5  1  0
  3  6  1  0
  6  7  2  0
  6  8  1  0
  8  9  2  0
  9 10  1  0
 10 11  2  0
 11 12  1  0
 12 13  2  0
 11 14  1  0
 14 15  2  3
 15 16  1  0
 16 17  1  0
 17 18  1  0
 18 19  1  0
 19 20  1  0
 14 21  1  0
 21 22  2  0
 22 23  1  0
 23 24  2  0
 24 25  1  0
 25 26  2  0
 13  8  1  0
 20 15  1  0
 26 21  1  0
M  END
>  <pIC50>  (6) 
5.42

>  <ChEMBL_ID>  (6) 
CHEMBL415521

>  <document_journal>  (6) 
J. Med. Chem.

>  <bao_endpoint>  (6) 
BAO_0000190

>  <potential_duplicate>  (6) 
False

>  <uo_units>  (6) 
UO_0000065

>  <canonical_smiles>  (6) 
CCN(CC)C(=O)c1ccc(cc1)C(=C2CCNCC2)c3ccccc3

>  <parent_molecule_chembl_id>  (6) 
CHEMBL415521

>  <assay_type>  (6) 
B

>  <src_id>  (6) 
1

>  <ligand_efficiency>  (6) 
{u'le': u'0.28', u'bei': u'15.55', u'sei': u'16.76', u'lle': u'1.64'}

>  <standard_flag>  (6) 
True

>  <molecule_chembl_id>  (6) 
CHEMBL415521

>  <target_organism>  (6) 
Homo sapiens

>  <standard_units>  (6) 
nM

>  <record_id>  (6) 
243058

>  <document_chembl_id>  (6) 
CHEMBL1133469

>  <bao_format>  (6) 
BAO_0000219

>  <data_validity_description>  (6) 
None

>  <activity_id>  (6) 
42185

>  <standard_type>  (6) 
IC50

>  <target_chembl_id>  (6) 
CHEMBL233

>  <data_validity_comment>  (6) 
None

>  <published_value>  (6) 
3800

>  <document_year>  (6) 
2000

>  <target_pref_name>  (6) 
Mu opioid receptor

>  <assay_chembl_id>  (6) 
CHEMBL749749

>  <standard_relation>  (6) 
=

>  <assay_description>  (6) 
Binding affinity on cloned opioid receptor mu 1 in human HEK293S cells using [125I]FK33824 as radioligand.

>  <published_relation>  (6) 
=

>  <standard_value>  (6) 
3800

>  <qudt_units>  (6) 
http://www.openphacts.org/units/Nanomolar

>  <target_tax_id>  (6) 
9606

>  <bao_label>  (6) 
cell-based format

>  <published_units>  (6) 
nM

>  <pchembl_value>  (6) 
5.42

>  <published_type>  (6) 
IC50

>  <activity_comment>  (6) 
None

$$$$

     RDKit          

 28 30  0  0  0  0  0  0  0  0999 V2000
    0.0000    0.0000    0.0000 C   0  0  0  0  0  0  0  0  0  0  0  0
    0.0000    0.0000    0.0000 C   0  0  0  0  0  0  0  0  0  0  0  0
    0.0000    0.0000    0.0000 N   0  0  0  0  0  0  0  0  0  0  0  0
    0.0000    0.0000    0.0000 C   0  0  0  0  0  0  0  0  0  0  0  0
    0.0000    0.0000    0.0000 C   0  0  0  0  0  0  0  0  0  0  0  0
    0.0000    0.0000    0.0000 C   0  0  0  0  0  0  0  0  0  0  0  0
    0.0000    0.0000    0.0000 O   0  0  0  0  0  0  0  0  0  0  0  0
    0.0000    0.0000    0.0000 C   0  0  0  0  0  0  0  0  0  0  0  0
    0.0000    0.0000    0.0000 C   0  0  0  0  0  0  0  0  0  0  0  0
    0.0000    0.0000    0.0000 C   0  0  0  0  0  0  0  0  0  0  0  0
    0.0000    0.0000    0.0000 C   0  0  0  0  0  0  0  0  0  0  0  0
    0.0000    0.0000    0.0000 C   0  0  0  0  0  0  0  0  0  0  0  0
    0.0000    0.0000    0.0000 C   0  0  0  0  0  0  0  0  0  0  0  0
    0.0000    0.0000    0.0000 C   0  0  0  0  0  0  0  0  0  0  0  0
    0.0000    0.0000    0.0000 C   0  0  0  0  0  0  0  0  0  0  0  0
    0.0000    0.0000    0.0000 C   0  0  0  0  0  0  0  0  0  0  0  0
    0.0000    0.0000    0.0000 C   0  0  0  0  0  0  0  0  0  0  0  0
    0.0000    0.0000    0.0000 N   0  0  0  0  0  0  0  0  0  0  0  0
    0.0000    0.0000    0.0000 C   0  0  0  0  0  0  0  0  0  0  0  0
    0.0000    0.0000    0.0000 C   0  0  0  0  0  0  0  0  0  0  0  0
    0.0000    0.0000    0.0000 C   0  0  0  0  0  0  0  0  0  0  0  0
    0.0000    0.0000    0.0000 C   0  0  0  0  0  0  0  0  0  0  0  0
    0.0000    0.0000    0.0000 C   0  0  0  0  0  0  0  0  0  0  0  0
    0.0000    0.0000    0.0000 C   0  0  0  0  0  0  0  0  0  0  0  0
    0.0000    0.0000    0.0000 C   0  0  0  0  0  0  0  0  0  0  0  0
    0.0000    0.0000    0.0000 C   0  0  0  0  0  0  0  0  0  0  0  0
    0.0000    0.0000    0.0000 C   0  0  0  0  0  0  0  0  0  0  0  0
    0.0000    0.0000    0.0000 C   0  0  0  0  0  0  0  0  0  0  0  0
  1  2  1  0
  2  3  1  0
  3  4  1  0
  4  5  1  0
  3  6  1  0
  6  7  2  0
  6  8  1  0
  8  9  2  0
  9 10  1  0
 10 11  2  0
 11 12  1  0
 12 13  2  0
 11 14  1  0
 14 15  2  3
 15 16  1  0
 16 17  1  0
 17 18  1  0
 18 19  1  0
 19 20  1  0
 14 21  1  0
 21 22  2  0
 22 23  1  0
 22 24  1  0
 24 25  2  0
 25 26  1  0
 26 27  2  0
 27 28  1  0
 13  8  1  0
 20 15  1  0
 27 21  1  0
M  END
>  <pIC50>  (7) 
5.99

>  <ChEMBL_ID>  (7) 
CHEMBL126884

>  <document_journal>  (7) 
J. Med. Chem.

>  <bao_endpoint>  (7) 
BAO_0000190

>  <potential_duplicate>  (7) 
False

>  <uo_units>  (7) 
UO_0000065

>  <canonical_smiles>  (7) 
CCN(CC)C(=O)c1ccc(cc1)C(=C2CCNCC2)c3c(C)cccc3C

>  <parent_molecule_chembl_id>  (7) 
CHEMBL126884

>  <assay_type>  (7) 
B

>  <src_id>  (7) 
1

>  <ligand_efficiency>  (7) 
{u'le': u'0.29', u'bei': u'15.91', u'sei': u'18.53', u'lle': u'1.24'}

>  <standard_flag>  (7) 
True

>  <molecule_chembl_id>  (7) 
CHEMBL126884

>  <target_organism>  (7) 
Homo sapiens

>  <standard_units>  (7) 
nM

>  <record_id>  (7) 
243052

>  <document_chembl_id>  (7) 
CHEMBL1133469

>  <bao_format>  (7) 
BAO_0000219

>  <data_validity_description>  (7) 
None

>  <activity_id>  (7) 
42194

>  <standard_type>  (7) 
IC50

>  <target_chembl_id>  (7) 
CHEMBL233

>  <data_validity_comment>  (7) 
None

>  <published_value>  (7) 
1020

>  <document_year>  (7) 
2000

>  <target_pref_name>  (7) 
Mu opioid receptor

>  <assay_chembl_id>  (7) 
CHEMBL749749

>  <standard_relation>  (7) 
=

>  <assay_description>  (7) 
Binding affinity on cloned opioid receptor mu 1 in human HEK293S cells using [125I]FK33824 as radioligand.

>  <published_relation>  (7) 
=

>  <standard_value>  (7) 
1020

>  <qudt_units>  (7) 
http://www.openphacts.org/units/Nanomolar

>  <target_tax_id>  (7) 
9606

>  <bao_label>  (7) 
cell-based format

>  <published_units>  (7) 
nM

>  <pchembl_value>  (7) 
5.99

>  <published_type>  (7) 
IC50

>  <activity_comment>  (7) 
None

$$$$

     RDKit          

 29 31  0  0  0  0  0  0  0  0999 V2000
    0.0000    0.0000    0.0000 C   0  0  0  0  0  0  0  0  0  0  0  0
    0.0000    0.0000    0.0000 C   0  0  0  0  0  0  0  0  0  0  0  0
    0.0000    0.0000    0.0000 N   0  0  0  0  0  0  0  0  0  0  0  0
    0.0000    0.0000    0.0000 C   0  0  0  0  0  0  0  0  0  0  0  0
    0.0000    0.0000    0.0000 C   0  0  0  0  0  0  0  0  0  0  0  0
    0.0000    0.0000    0.0000 C   0  0  0  0  0  0  0  0  0  0  0  0
    0.0000    0.0000    0.0000 O   0  0  0  0  0  0  0  0  0  0  0  0
    0.0000    0.0000    0.0000 C   0  0  0  0  0  0  0  0  0  0  0  0
    0.0000    0.0000    0.0000 C   0  0  0  0  0  0  0  0  0  0  0  0
    0.0000    0.0000    0.0000 C   0  0  0  0  0  0  0  0  0  0  0  0
    0.0000    0.0000    0.0000 C   0  0  0  0  0  0  0  0  0  0  0  0
    0.0000    0.0000    0.0000 C   0  0  0  0  0  0  0  0  0  0  0  0
    0.0000    0.0000    0.0000 C   0  0  0  0  0  0  0  0  0  0  0  0
    0.0000    0.0000    0.0000 C   0  0  0  0  0  0  0  0  0  0  0  0
    0.0000    0.0000    0.0000 C   0  0  0  0  0  0  0  0  0  0  0  0
    0.0000    0.0000    0.0000 C   0  0  0  0  0  0  0  0  0  0  0  0
    0.0000    0.0000    0.0000 C   0  0  0  0  0  0  0  0  0  0  0  0
    0.0000    0.0000    0.0000 N   0  0  0  0  0  0  0  0  0  0  0  0
    0.0000    0.0000    0.0000 C   0  0  0  0  0  0  0  0  0  0  0  0
    0.0000    0.0000    0.0000 C   0  0  0  0  0  0  0  0  0  0  0  0
    0.0000    0.0000    0.0000 C   0  0  0  0  0  0  0  0  0  0  0  0
    0.0000    0.0000    0.0000 C   0  0  0  0  0  0  0  0  0  0  0  0
    0.0000    0.0000    0.0000 C   0  0  0  0  0  0  0  0  0  0  0  0
    0.0000    0.0000    0.0000 C   0  0  0  0  0  0  0  0  0  0  0  0
    0.0000    0.0000    0.0000 C   0  0  0  0  0  0  0  0  0  0  0  0
    0.0000    0.0000    0.0000 C   0  0  0  0  0  0  0  0  0  0  0  0
    0.0000    0.0000    0.0000 C   0  0  0  0  0  0  0  0  0  0  0  0
    0.0000    0.0000    0.0000 C   0  0  0  0  0  0  0  0  0  0  0  0
    0.0000    0.0000    0.0000 C   0  0  0  0  0  0  0  0  0  0  0  0
  1  2  1  0
  2  3  1  0
  3  4  1  0
  4  5  1  0
  3  6  1  0
  6  7  2  0
  6  8  1  0
  8  9  2  0
  9 10  1  0
 10 11  2  0
 11 12  1  0
 12 13  2  0
 11 14  1  0
 14 15  2  3
 15 16  1  0
 16 17  1  0
 17 18  1  0
 18 19  1  0
 19 20  1  0
 20 21  2  0
 18 22  1  0
 22 23  1  0
 14 24  1  0
 24 25  2  0
 25 26  1  0
 26 27  2  0
 27 28  1  0
 28 29  2  0
 13  8  1  0
 23 15  1  0
 29 24  1  0
M  END
>  <pIC50>  (8) 
5.48

>  <ChEMBL_ID>  (8) 
CHEMBL126255

>  <document_journal>  (8) 
J. Med. Chem.

>  <bao_endpoint>  (8) 
BAO_0000190

>  <potential_duplicate>  (8) 
False

>  <uo_units>  (8) 
UO_0000065

>  <canonical_smiles>  (8) 
CCN(CC)C(=O)c1ccc(cc1)C(=C2CCN(CC=C)CC2)c3ccccc3

>  <parent_molecule_chembl_id>  (8) 
CHEMBL126255

>  <assay_type>  (8) 
B

>  <src_id>  (8) 
1

>  <ligand_efficiency>  (8) 
{u'le': u'0.26', u'bei': u'14.1', u'sei': u'23.26', u'lle': u'0.55'}

>  <standard_flag>  (8) 
True

>  <molecule_chembl_id>  (8) 
CHEMBL126255

>  <target_organism>  (8) 
Homo sapiens

>  <standard_units>  (8) 
nM

>  <record_id>  (8) 
243035

>  <document_chembl_id>  (8) 
CHEMBL1133469

>  <bao_format>  (8) 
BAO_0000219

>  <data_validity_description>  (8) 
None

>  <activity_id>  (8) 
46954

>  <standard_type>  (8) 
IC50

>  <target_chembl_id>  (8) 
CHEMBL233

>  <data_validity_comment>  (8) 
None

>  <published_value>  (8) 
3330

>  <document_year>  (8) 
2000

>  <target_pref_name>  (8) 
Mu opioid receptor

>  <assay_chembl_id>  (8) 
CHEMBL749749

>  <standard_relation>  (8) 
=

>  <assay_description>  (8) 
Binding affinity on cloned opioid receptor mu 1 in human HEK293S cells using [125I]FK33824 as radioligand.

>  <published_relation>  (8) 
=

>  <standard_value>  (8) 
3330

>  <qudt_units>  (8) 
http://www.openphacts.org/units/Nanomolar

>  <target_tax_id>  (8) 
9606

>  <bao_label>  (8) 
cell-based format

>  <published_units>  (8) 
nM

>  <pchembl_value>  (8) 
5.48

>  <published_type>  (8) 
IC50

>  <activity_comment>  (8) 
None

$$$$

     RDKit          

 28 30  0  0  0  0  0  0  0  0999 V2000
    0.0000    0.0000    0.0000 C   0  0  0  0  0  0  0  0  0  0  0  0
    0.0000    0.0000    0.0000 C   0  0  0  0  0  0  0  0  0  0  0  0
    0.0000    0.0000    0.0000 N   0  0  0  0  0  0  0  0  0  0  0  0
    0.0000    0.0000    0.0000 C   0  0  0  0  0  0  0  0  0  0  0  0
    0.0000    0.0000    0.0000 C   0  0  0  0  0  0  0  0  0  0  0  0
    0.0000    0.0000    0.0000 C   0  0  0  0  0  0  0  0  0  0  0  0
    0.0000    0.0000    0.0000 O   0  0  0  0  0  0  0  0  0  0  0  0
    0.0000    0.0000    0.0000 C   0  0  0  0  0  0  0  0  0  0  0  0
    0.0000    0.0000    0.0000 C   0  0  0  0  0  0  0  0  0  0  0  0
    0.0000    0.0000    0.0000 C   0  0  0  0  0  0  0  0  0  0  0  0
    0.0000    0.0000    0.0000 C   0  0  0  0  0  0  0  0  0  0  0  0
    0.0000    0.0000    0.0000 C   0  0  0  0  0  0  0  0  0  0  0  0
    0.0000    0.0000    0.0000 C   0  0  0  0  0  0  0  0  0  0  0  0
    0.0000    0.0000    0.0000 C   0  0  0  0  0  0  0  0  0  0  0  0
    0.0000    0.0000    0.0000 C   0  0  0  0  0  0  0  0  0  0  0  0
    0.0000    0.0000    0.0000 C   0  0  0  0  0  0  0  0  0  0  0  0
    0.0000    0.0000    0.0000 C   0  0  0  0  0  0  0  0  0  0  0  0
    0.0000    0.0000    0.0000 N   0  0  0  0  0  0  0  0  0  0  0  0
    0.0000    0.0000    0.0000 C   0  0  0  0  0  0  0  0  0  0  0  0
    0.0000    0.0000    0.0000 C   0  0  0  0  0  0  0  0  0  0  0  0
    0.0000    0.0000    0.0000 C   0  0  0  0  0  0  0  0  0  0  0  0
    0.0000    0.0000    0.0000 C   0  0  0  0  0  0  0  0  0  0  0  0
    0.0000    0.0000    0.0000 C   0  0  0  0  0  0  0  0  0  0  0  0
    0.0000    0.0000    0.0000 C   0  0  0  0  0  0  0  0  0  0  0  0
    0.0000    0.0000    0.0000 Cl  0  0  0  0  0  0  0  0  0  0  0  0
    0.0000    0.0000    0.0000 C   0  0  0  0  0  0  0  0  0  0  0  0
    0.0000    0.0000    0.0000 Cl  0  0  0  0  0  0  0  0  0  0  0  0
    0.0000    0.0000    0.0000 C   0  0  0  0  0  0  0  0  0  0  0  0
  1  2  1  0
  2  3  1  0
  3  4  1  0
  4  5  1  0
  3  6  1  0
  6  7  2  0
  6  8  1  0
  8  9  2  0
  9 10  1  0
 10 11  2  0
 11 12  1  0
 12 13  2  0
 11 14  1  0
 14 15  2  3
 15 16  1  0
 16 17  1  0
 17 18  1  0
 18 19  1  0
 19 20  1  0
 14 21  1  0
 21 22  2  0
 22 23  1  0
 23 24  2  0
 24 25  1  0
 24 26  1  0
 26 27  1  0
 26 28  2  0
 13  8  1  0
 20 15  1  0
 28 21  1  0
M  END
>  <pIC50>  (9) 
5.59

>  <ChEMBL_ID>  (9) 
CHEMBL126857

>  <document_journal>  (9) 
J. Med. Chem.

>  <bao_endpoint>  (9) 
BAO_0000190

>  <potential_duplicate>  (9) 
False

>  <uo_units>  (9) 
UO_0000065

>  <canonical_smiles>  (9) 
CCN(CC)C(=O)c1ccc(cc1)C(=C2CCNCC2)c3ccc(Cl)c(Cl)c3

>  <parent_molecule_chembl_id>  (9) 
CHEMBL126857

>  <assay_type>  (9) 
B

>  <src_id>  (9) 
1

>  <ligand_efficiency>  (9) 
{u'le': u'0.27', u'bei': u'13.39', u'sei': u'17.27', u'lle': u'0.48'}

>  <standard_flag>  (9) 
True

>  <molecule_chembl_id>  (9) 
CHEMBL126857

>  <target_organism>  (9) 
Homo sapiens

>  <standard_units>  (9) 
nM

>  <record_id>  (9) 
243050

>  <document_chembl_id>  (9) 
CHEMBL1133469

>  <bao_format>  (9) 
BAO_0000219

>  <data_validity_description>  (9) 
None

>  <activity_id>  (9) 
49635

>  <standard_type>  (9) 
IC50

>  <target_chembl_id>  (9) 
CHEMBL233

>  <data_validity_comment>  (9) 
None

>  <published_value>  (9) 
2590

>  <document_year>  (9) 
2000

>  <target_pref_name>  (9) 
Mu opioid receptor

>  <assay_chembl_id>  (9) 
CHEMBL749749

>  <standard_relation>  (9) 
=

>  <assay_description>  (9) 
Binding affinity on cloned opioid receptor mu 1 in human HEK293S cells using [125I]FK33824 as radioligand.

>  <published_relation>  (9) 
=

>  <standard_value>  (9) 
2590

>  <qudt_units>  (9) 
http://www.openphacts.org/units/Nanomolar

>  <target_tax_id>  (9) 
9606

>  <bao_label>  (9) 
cell-based format

>  <published_units>  (9) 
nM

>  <pchembl_value>  (9) 
5.59

>  <published_type>  (9) 
IC50

>  <activity_comment>  (9) 
None

$$$$

     RDKit          

 27 29  0  0  0  0  0  0  0  0999 V2000
    0.0000    0.0000    0.0000 C   0  0  0  0  0  0  0  0  0  0  0  0
    0.0000    0.0000    0.0000 C   0  0  0  0  0  0  0  0  0  0  0  0
    0.0000    0.0000    0.0000 N   0  0  0  0  0  0  0  0  0  0  0  0
    0.0000    0.0000    0.0000 C   0  0  0  0  0  0  0  0  0  0  0  0
    0.0000    0.0000    0.0000 C   0  0  0  0  0  0  0  0  0  0  0  0
    0.0000    0.0000    0.0000 C   0  0  0  0  0  0  0  0  0  0  0  0
    0.0000    0.0000    0.0000 O   0  0  0  0  0  0  0  0  0  0  0  0
    0.0000    0.0000    0.0000 C   0  0  0  0  0  0  0  0  0  0  0  0
    0.0000    0.0000    0.0000 C   0  0  0  0  0  0  0  0  0  0  0  0
    0.0000    0.0000    0.0000 C   0  0  0  0  0  0  0  0  0  0  0  0
    0.0000    0.0000    0.0000 C   0  0  0  0  0  0  0  0  0  0  0  0
    0.0000    0.0000    0.0000 C   0  0  0  0  0  0  0  0  0  0  0  0
    0.0000    0.0000    0.0000 C   0  0  0  0  0  0  0  0  0  0  0  0
    0.0000    0.0000    0.0000 C   0  0  0  0  0  0  0  0  0  0  0  0
    0.0000    0.0000    0.0000 C   0  0  0  0  0  0  0  0  0  0  0  0
    0.0000    0.0000    0.0000 C   0  0  0  0  0  0  0  0  0  0  0  0
    0.0000    0.0000    0.0000 C   0  0  0  0  0  0  0  0  0  0  0  0
    0.0000    0.0000    0.0000 N   0  0  0  0  0  0  0  0  0  0  0  0
    0.0000    0.0000    0.0000 C   0  0  0  0  0  0  0  0  0  0  0  0
    0.0000    0.0000    0.0000 C   0  0  0  0  0  0  0  0  0  0  0  0
    0.0000    0.0000    0.0000 C   0  0  0  0  0  0  0  0  0  0  0  0
    0.0000    0.0000    0.0000 C   0  0  0  0  0  0  0  0  0  0  0  0
    0.0000    0.0000    0.0000 C   0  0  0  0  0  0  0  0  0  0  0  0
    0.0000    0.0000    0.0000 C   0  0  0  0  0  0  0  0  0  0  0  0
    0.0000    0.0000    0.0000 C   0  0  0  0  0  0  0  0  0  0  0  0
    0.0000    0.0000    0.0000 F   0  0  0  0  0  0  0  0  0  0  0  0
    0.0000    0.0000    0.0000 C   0  0  0  0  0  0  0  0  0  0  0  0
  1  2  1  0
  2  3  1  0
  3  4  1  0
  4  5  1  0
  3  6  1  0
  6  7  2  0
  6  8  1  0
  8  9  2  0
  9 10  1  0
 10 11  2  0
 11 12  1  0
 12 13  2  0
 11 14  1  0
 14 15  2  3
 15 16  1  0
 16 17  1  0
 17 18  1  0
 18 19  1  0
 19 20  1  0
 14 21  1  0
 21 22  2  0
 22 23  1  0
 23 24  2  0
 24 25  1  0
 25 26  1  0
 25 27  2  0
 13  8  1  0
 20 15  1  0
 27 21  1  0
M  END
>  <pIC50>  (10) 
5.45

>  <ChEMBL_ID>  (10) 
CHEMBL339457

>  <document_journal>  (10) 
J. Med. Chem.

>  <bao_endpoint>  (10) 
BAO_0000190

>  <potential_duplicate>  (10) 
False

>  <uo_units>  (10) 
UO_0000065

>  <canonical_smiles>  (10) 
CCN(CC)C(=O)c1ccc(cc1)C(=C2CCNCC2)c3cccc(F)c3

>  <parent_molecule_chembl_id>  (10) 
CHEMBL339457

>  <assay_type>  (10) 
B

>  <src_id>  (10) 
1

>  <ligand_efficiency>  (10) 
{u'le': u'0.28', u'bei': u'14.86', u'sei': u'16.84', u'lle': u'1.46'}

>  <standard_flag>  (10) 
True

>  <molecule_chembl_id>  (10) 
CHEMBL339457

>  <target_organism>  (10) 
Homo sapiens

>  <standard_units>  (10) 
nM

>  <record_id>  (10) 
243054

>  <document_chembl_id>  (10) 
CHEMBL1133469

>  <bao_format>  (10) 
BAO_0000219

>  <data_validity_description>  (10) 
None

>  <activity_id>  (10) 
52159

>  <standard_type>  (10) 
IC50

>  <target_chembl_id>  (10) 
CHEMBL233

>  <data_validity_comment>  (10) 
None

>  <published_value>  (10) 
3570

>  <document_year>  (10) 
2000

>  <target_pref_name>  (10) 
Mu opioid receptor

>  <assay_chembl_id>  (10) 
CHEMBL749749

>  <standard_relation>  (10) 
=

>  <assay_description>  (10) 
Binding affinity on cloned opioid receptor mu 1 in human HEK293S cells using [125I]FK33824 as radioligand.

>  <published_relation>  (10) 
=

>  <standard_value>  (10) 
3570

>  <qudt_units>  (10) 
http://www.openphacts.org/units/Nanomolar

>  <target_tax_id>  (10) 
9606

>  <bao_label>  (10) 
cell-based format

>  <published_units>  (10) 
nM

>  <pchembl_value>  (10) 
5.45

>  <published_type>  (10) 
IC50

>  <activity_comment>  (10) 
None

$$$$

     RDKit          

 25 27  0  0  0  0  0  0  0  0999 V2000
    0.0000    0.0000    0.0000 C   0  0  0  0  0  0  0  0  0  0  0  0
    0.0000    0.0000    0.0000 C   0  0  0  0  0  0  0  0  0  0  0  0
    0.0000    0.0000    0.0000 N   0  0  0  0  0  0  0  0  0  0  0  0
    0.0000    0.0000    0.0000 C   0  0  0  0  0  0  0  0  0  0  0  0
    0.0000    0.0000    0.0000 C   0  0  0  0  0  0  0  0  0  0  0  0
    0.0000    0.0000    0.0000 C   0  0  0  0  0  0  0  0  0  0  0  0
    0.0000    0.0000    0.0000 O   0  0  0  0  0  0  0  0  0  0  0  0
    0.0000    0.0000    0.0000 C   0  0  0  0  0  0  0  0  0  0  0  0
    0.0000    0.0000    0.0000 C   0  0  0  0  0  0  0  0  0  0  0  0
    0.0000    0.0000    0.0000 C   0  0  0  0  0  0  0  0  0  0  0  0
    0.0000    0.0000    0.0000 C   0  0  0  0  0  0  0  0  0  0  0  0
    0.0000    0.0000    0.0000 C   0  0  0  0  0  0  0  0  0  0  0  0
    0.0000    0.0000    0.0000 C   0  0  0  0  0  0  0  0  0  0  0  0
    0.0000    0.0000    0.0000 C   0  0  0  0  0  0  0  0  0  0  0  0
    0.0000    0.0000    0.0000 C   0  0  0  0  0  0  0  0  0  0  0  0
    0.0000    0.0000    0.0000 C   0  0  0  0  0  0  0  0  0  0  0  0
    0.0000    0.0000    0.0000 C   0  0  0  0  0  0  0  0  0  0  0  0
    0.0000    0.0000    0.0000 N   0  0  0  0  0  0  0  0  0  0  0  0
    0.0000    0.0000    0.0000 C   0  0  0  0  0  0  0  0  0  0  0  0
    0.0000    0.0000    0.0000 C   0  0  0  0  0  0  0  0  0  0  0  0
    0.0000    0.0000    0.0000 C   0  0  0  0  0  0  0  0  0  0  0  0
    0.0000    0.0000    0.0000 C   0  0  0  0  0  0  0  0  0  0  0  0
    0.0000    0.0000    0.0000 C   0  0  0  0  0  0  0  0  0  0  0  0
    0.0000    0.0000    0.0000 C   0  0  0  0  0  0  0  0  0  0  0  0
    0.0000    0.0000    0.0000 S   0  0  0  0  0  0  0  0  0  0  0  0
  1  2  1  0
  2  3  1  0
  3  4  1  0
  4  5  1  0
  3  6  1  0
  6  7  2  0
  6  8  1  0
  8  9  2  0
  9 10  1  0
 10 11  2  0
 11 12  1  0
 12 13  2  0
 11 14  1  0
 14 15  2  3
 15 16  1  0
 16 17  1  0
 17 18  1  0
 18 19  1  0
 19 20  1  0
 14 21  1  0
 21 22  2  0
 22 23  1  0
 23 24  2  0
 24 25  1  0
 13  8  1  0
 20 15  1  0
 25 21  1  0
M  END
>  <pIC50>  (11) 
5.26

>  <ChEMBL_ID>  (11) 
CHEMBL129315

>  <document_journal>  (11) 
J. Med. Chem.

>  <bao_endpoint>  (11) 
BAO_0000190

>  <potential_duplicate>  (11) 
False

>  <uo_units>  (11) 
UO_0000065

>  <canonical_smiles>  (11) 
CCN(CC)C(=O)c1ccc(cc1)C(=C2CCNCC2)c3cccs3

>  <parent_molecule_chembl_id>  (11) 
CHEMBL129315

>  <assay_type>  (11) 
B

>  <src_id>  (11) 
1

>  <ligand_efficiency>  (11) 
{u'le': u'0.29', u'bei': u'14.85', u'sei': u'8.69', u'lle': u'1.52'}

>  <standard_flag>  (11) 
True

>  <molecule_chembl_id>  (11) 
CHEMBL129315

>  <target_organism>  (11) 
Homo sapiens

>  <standard_units>  (11) 
nM

>  <record_id>  (11) 
243041

>  <document_chembl_id>  (11) 
CHEMBL1133469

>  <bao_format>  (11) 
BAO_0000219

>  <data_validity_description>  (11) 
None

>  <activity_id>  (11) 
52168

>  <standard_type>  (11) 
IC50

>  <target_chembl_id>  (11) 
CHEMBL233

>  <data_validity_comment>  (11) 
None

>  <published_value>  (11) 
5440

>  <document_year>  (11) 
2000

>  <target_pref_name>  (11) 
Mu opioid receptor

>  <assay_chembl_id>  (11) 
CHEMBL749749

>  <standard_relation>  (11) 
=

>  <assay_description>  (11) 
Binding affinity on cloned opioid receptor mu 1 in human HEK293S cells using [125I]FK33824 as radioligand.

>  <published_relation>  (11) 
=

>  <standard_value>  (11) 
5440

>  <qudt_units>  (11) 
http://www.openphacts.org/units/Nanomolar

>  <target_tax_id>  (11) 
9606

>  <bao_label>  (11) 
cell-based format

>  <published_units>  (11) 
nM

>  <pchembl_value>  (11) 
5.26

>  <published_type>  (11) 
IC50

>  <activity_comment>  (11) 
None

$$$$

     RDKit          

 29 31  0  0  0  0  0  0  0  0999 V2000
    0.0000    0.0000    0.0000 C   0  0  0  0  0  0  0  0  0  0  0  0
    0.0000    0.0000    0.0000 C   0  0  0  0  0  0  0  0  0  0  0  0
    0.0000    0.0000    0.0000 N   0  0  0  0  0  0  0  0  0  0  0  0
    0.0000    0.0000    0.0000 C   0  0  0  0  0  0  0  0  0  0  0  0
    0.0000    0.0000    0.0000 C   0  0  0  0  0  0  0  0  0  0  0  0
    0.0000    0.0000    0.0000 C   0  0  0  0  0  0  0  0  0  0  0  0
    0.0000    0.0000    0.0000 O   0  0  0  0  0  0  0  0  0  0  0  0
    0.0000    0.0000    0.0000 C   0  0  0  0  0  0  0  0  0  0  0  0
    0.0000    0.0000    0.0000 C   0  0  0  0  0  0  0  0  0  0  0  0
    0.0000    0.0000    0.0000 C   0  0  0  0  0  0  0  0  0  0  0  0
    0.0000    0.0000    0.0000 C   0  0  0  0  0  0  0  0  0  0  0  0
    0.0000    0.0000    0.0000 C   0  0  0  0  0  0  0  0  0  0  0  0
    0.0000    0.0000    0.0000 C   0  0  0  0  0  0  0  0  0  0  0  0
    0.0000    0.0000    0.0000 C   0  0  0  0  0  0  0  0  0  0  0  0
    0.0000    0.0000    0.0000 C   0  0  0  0  0  0  0  0  0  0  0  0
    0.0000    0.0000    0.0000 C   0  0  0  0  0  0  0  0  0  0  0  0
    0.0000    0.0000    0.0000 C   0  0  0  0  0  0  0  0  0  0  0  0
    0.0000    0.0000    0.0000 N   0  0  0  0  0  0  0  0  0  0  0  0
    0.0000    0.0000    0.0000 C   0  0  0  0  0  0  0  0  0  0  0  0
    0.0000    0.0000    0.0000 C   0  0  0  0  0  0  0  0  0  0  0  0
    0.0000    0.0000    0.0000 C   0  0  0  0  0  0  0  0  0  0  0  0
    0.0000    0.0000    0.0000 C   0  0  0  0  0  0  0  0  0  0  0  0
    0.0000    0.0000    0.0000 C   0  0  0  0  0  0  0  0  0  0  0  0
    0.0000    0.0000    0.0000 C   0  0  0  0  0  0  0  0  0  0  0  0
    0.0000    0.0000    0.0000 C   0  0  0  0  0  0  0  0  0  0  0  0
    0.0000    0.0000    0.0000 C   0  0  0  0  0  0  0  0  0  0  0  0
    0.0000    0.0000    0.0000 N   0  0  0  0  0  0  0  0  0  0  0  0
    0.0000    0.0000    0.0000 O   0  0  0  0  0  0  0  0  0  0  0  0
    0.0000    0.0000    0.0000 O   0  0  0  0  0  0  0  0  0  0  0  0
  1  2  1  0
  2  3  1  0
  3  4  1  0
  4  5  1  0
  3  6  1  0
  6  7  2  0
  6  8  1  0
  8  9  2  0
  9 10  1  0
 10 11  2  0
 11 12  1  0
 12 13  2  0
 11 14  1  0
 14 15  2  3
 15 16  1  0
 16 17  1  0
 17 18  1  0
 18 19  1  0
 19 20  1  0
 14 21  1  0
 21 22  2  0
 22 23  1  0
 23 24  2  0
 24 25  1  0
 25 26  2  0
 25 27  1  0
 27 28  2  0
 27 29  1  0
 13  8  1  0
 20 15  1  0
 26 21  1  0
M  CHG  2  27   1  29  -1
M  END
>  <pIC50>  (12) 
5.56

>  <ChEMBL_ID>  (12) 
CHEMBL340131

>  <document_journal>  (12) 
J. Med. Chem.

>  <bao_endpoint>  (12) 
BAO_0000190

>  <potential_duplicate>  (12) 
False

>  <uo_units>  (12) 
UO_0000065

>  <canonical_smiles>  (12) 
CCN(CC)C(=O)c1ccc(cc1)C(=C2CCNCC2)c3cccc(c3)[N+](=O)[O-]

>  <parent_molecule_chembl_id>  (12) 
CHEMBL340131

>  <assay_type>  (12) 
B

>  <src_id>  (12) 
1

>  <ligand_efficiency>  (12) 
{u'le': u'0.26', u'bei': u'14.14', u'sei': u'7.12', u'lle': u'1.88'}

>  <standard_flag>  (12) 
True

>  <molecule_chembl_id>  (12) 
CHEMBL340131

>  <target_organism>  (12) 
Homo sapiens

>  <standard_units>  (12) 
nM

>  <record_id>  (12) 
243043

>  <document_chembl_id>  (12) 
CHEMBL1133469

>  <bao_format>  (12) 
BAO_0000219

>  <data_validity_description>  (12) 
None

>  <activity_id>  (12) 
53504

>  <standard_type>  (12) 
IC50

>  <target_chembl_id>  (12) 
CHEMBL233

>  <data_validity_comment>  (12) 
None

>  <published_value>  (12) 
2740

>  <document_year>  (12) 
2000

>  <target_pref_name>  (12) 
Mu opioid receptor

>  <assay_chembl_id>  (12) 
CHEMBL749749

>  <standard_relation>  (12) 
=

>  <assay_description>  (12) 
Binding affinity on cloned opioid receptor mu 1 in human HEK293S cells using [125I]FK33824 as radioligand.

>  <published_relation>  (12) 
=

>  <standard_value>  (12) 
2740

>  <qudt_units>  (12) 
http://www.openphacts.org/units/Nanomolar

>  <target_tax_id>  (12) 
9606

>  <bao_label>  (12) 
cell-based format

>  <published_units>  (12) 
nM

>  <pchembl_value>  (12) 
5.56

>  <published_type>  (12) 
IC50

>  <activity_comment>  (12) 
None

$$$$

     RDKit          

 30 33  0  0  0  0  0  0  0  0999 V2000
    0.0000    0.0000    0.0000 C   0  0  0  0  0  0  0  0  0  0  0  0
    0.0000    0.0000    0.0000 C   0  0  0  0  0  0  0  0  0  0  0  0
    0.0000    0.0000    0.0000 N   0  0  0  0  0  0  0  0  0  0  0  0
    0.0000    0.0000    0.0000 C   0  0  0  0  0  0  0  0  0  0  0  0
    0.0000    0.0000    0.0000 C   0  0  0  0  0  0  0  0  0  0  0  0
    0.0000    0.0000    0.0000 C   0  0  0  0  0  0  0  0  0  0  0  0
    0.0000    0.0000    0.0000 O   0  0  0  0  0  0  0  0  0  0  0  0
    0.0000    0.0000    0.0000 C   0  0  0  0  0  0  0  0  0  0  0  0
    0.0000    0.0000    0.0000 C   0  0  0  0  0  0  0  0  0  0  0  0
    0.0000    0.0000    0.0000 C   0  0  0  0  0  0  0  0  0  0  0  0
    0.0000    0.0000    0.0000 C   0  0  0  0  0  0  0  0  0  0  0  0
    0.0000    0.0000    0.0000 C   0  0  0  0  0  0  0  0  0  0  0  0
    0.0000    0.0000    0.0000 C   0  0  0  0  0  0  0  0  0  0  0  0
    0.0000    0.0000    0.0000 C   0  0  0  0  0  0  0  0  0  0  0  0
    0.0000    0.0000    0.0000 C   0  0  0  0  0  0  0  0  0  0  0  0
    0.0000    0.0000    0.0000 C   0  0  0  0  0  0  0  0  0  0  0  0
    0.0000    0.0000    0.0000 C   0  0  0  0  0  0  0  0  0  0  0  0
    0.0000    0.0000    0.0000 N   0  0  0  0  0  0  0  0  0  0  0  0
    0.0000    0.0000    0.0000 C   0  0  0  0  0  0  0  0  0  0  0  0
    0.0000    0.0000    0.0000 C   0  0  0  0  0  0  0  0  0  0  0  0
    0.0000    0.0000    0.0000 C   0  0  0  0  0  0  0  0  0  0  0  0
    0.0000    0.0000    0.0000 C   0  0  0  0  0  0  0  0  0  0  0  0
    0.0000    0.0000    0.0000 C   0  0  0  0  0  0  0  0  0  0  0  0
    0.0000    0.0000    0.0000 C   0  0  0  0  0  0  0  0  0  0  0  0
    0.0000    0.0000    0.0000 C   0  0  0  0  0  0  0  0  0  0  0  0
    0.0000    0.0000    0.0000 C   0  0  0  0  0  0  0  0  0  0  0  0
    0.0000    0.0000    0.0000 C   0  0  0  0  0  0  0  0  0  0  0  0
    0.0000    0.0000    0.0000 C   0  0  0  0  0  0  0  0  0  0  0  0
    0.0000    0.0000    0.0000 C   0  0  0  0  0  0  0  0  0  0  0  0
    0.0000    0.0000    0.0000 C   0  0  0  0  0  0  0  0  0  0  0  0
  1  2  1  0
  2  3  1  0
  3  4  1  0
  4  5  1  0
  3  6  1  0
  6  7  2  0
  6  8  1  0
  8  9  2  0
  9 10  1  0
 10 11  2  0
 11 12  1  0
 12 13  2  0
 11 14  1  0
 14 15  2  3
 15 16  1  0
 16 17  1  0
 17 18  1  0
 18 19  1  0
 19 20  1  0
 20 21  1  0
 21 22  1  0
 18 23  1  0
 23 24  1  0
 14 25  1  0
 25 26  2  0
 26 27  1  0
 27 28  2  0
 28 29  1  0
 29 30  2  0
 13  8  1  0
 24 15  1  0
 22 20  1  0
 30 25  1  0
M  END
>  <pIC50>  (13) 
5.47

>  <ChEMBL_ID>  (13) 
CHEMBL127788

>  <document_journal>  (13) 
J. Med. Chem.

>  <bao_endpoint>  (13) 
BAO_0000190

>  <potential_duplicate>  (13) 
False

>  <uo_units>  (13) 
UO_0000065

>  <canonical_smiles>  (13) 
CCN(CC)C(=O)c1ccc(cc1)C(=C2CCN(CC3CC3)CC2)c4ccccc4

>  <parent_molecule_chembl_id>  (13) 
CHEMBL127788

>  <assay_type>  (13) 
B

>  <src_id>  (13) 
1

>  <ligand_efficiency>  (13) 
{u'le': u'0.25', u'bei': u'13.59', u'sei': u'23.23', u'lle': u'0.33'}

>  <standard_flag>  (13) 
True

>  <molecule_chembl_id>  (13) 
CHEMBL127788

>  <target_organism>  (13) 
Homo sapiens

>  <standard_units>  (13) 
nM

>  <record_id>  (13) 
243047

>  <document_chembl_id>  (13) 
CHEMBL1133469

>  <bao_format>  (13) 
BAO_0000219

>  <data_validity_description>  (13) 
None

>  <activity_id>  (13) 
54700

>  <standard_type>  (13) 
IC50

>  <target_chembl_id>  (13) 
CHEMBL233

>  <data_validity_comment>  (13) 
None

>  <published_value>  (13) 
3390

>  <document_year>  (13) 
2000

>  <target_pref_name>  (13) 
Mu opioid receptor

>  <assay_chembl_id>  (13) 
CHEMBL749749

>  <standard_relation>  (13) 
=

>  <assay_description>  (13) 
Binding affinity on cloned opioid receptor mu 1 in human HEK293S cells using [125I]FK33824 as radioligand.

>  <published_relation>  (13) 
=

>  <standard_value>  (13) 
3390

>  <qudt_units>  (13) 
http://www.openphacts.org/units/Nanomolar

>  <target_tax_id>  (13) 
9606

>  <bao_label>  (13) 
cell-based format

>  <published_units>  (13) 
nM

>  <pchembl_value>  (13) 
5.47

>  <published_type>  (13) 
IC50

>  <activity_comment>  (13) 
None

$$$$

     RDKit          

 28 30  0  0  0  0  0  0  0  0999 V2000
    0.0000    0.0000    0.0000 C   0  0  0  0  0  0  0  0  0  0  0  0
    0.0000    0.0000    0.0000 C   0  0  0  0  0  0  0  0  0  0  0  0
    0.0000    0.0000    0.0000 N   0  0  0  0  0  0  0  0  0  0  0  0
    0.0000    0.0000    0.0000 C   0  0  0  0  0  0  0  0  0  0  0  0
    0.0000    0.0000    0.0000 C   0  0  0  0  0  0  0  0  0  0  0  0
    0.0000    0.0000    0.0000 C   0  0  0  0  0  0  0  0  0  0  0  0
    0.0000    0.0000    0.0000 O   0  0  0  0  0  0  0  0  0  0  0  0
    0.0000    0.0000    0.0000 C   0  0  0  0  0  0  0  0  0  0  0  0
    0.0000    0.0000    0.0000 C   0  0  0  0  0  0  0  0  0  0  0  0
    0.0000    0.0000    0.0000 C   0  0  0  0  0  0  0  0  0  0  0  0
    0.0000    0.0000    0.0000 C   0  0  0  0  0  0  0  0  0  0  0  0
    0.0000    0.0000    0.0000 C   0  0  0  0  0  0  0  0  0  0  0  0
    0.0000    0.0000    0.0000 C   0  0  0  0  0  0  0  0  0  0  0  0
    0.0000    0.0000    0.0000 C   0  0  0  0  0  0  0  0  0  0  0  0
    0.0000    0.0000    0.0000 C   0  0  0  0  0  0  0  0  0  0  0  0
    0.0000    0.0000    0.0000 C   0  0  0  0  0  0  0  0  0  0  0  0
    0.0000    0.0000    0.0000 C   0  0  0  0  0  0  0  0  0  0  0  0
    0.0000    0.0000    0.0000 N   0  0  0  0  0  0  0  0  0  0  0  0
    0.0000    0.0000    0.0000 C   0  0  0  0  0  0  0  0  0  0  0  0
    0.0000    0.0000    0.0000 C   0  0  0  0  0  0  0  0  0  0  0  0
    0.0000    0.0000    0.0000 C   0  0  0  0  0  0  0  0  0  0  0  0
    0.0000    0.0000    0.0000 C   0  0  0  0  0  0  0  0  0  0  0  0
    0.0000    0.0000    0.0000 C   0  0  0  0  0  0  0  0  0  0  0  0
    0.0000    0.0000    0.0000 C   0  0  0  0  0  0  0  0  0  0  0  0
    0.0000    0.0000    0.0000 S   0  0  0  0  0  0  0  0  0  0  0  0
    0.0000    0.0000    0.0000 C   0  0  0  0  0  0  0  0  0  0  0  0
    0.0000    0.0000    0.0000 C   0  0  0  0  0  0  0  0  0  0  0  0
    0.0000    0.0000    0.0000 C   0  0  0  0  0  0  0  0  0  0  0  0
  1  2  1  0
  2  3  1  0
  3  4  1  0
  4  5  1  0
  3  6  1  0
  6  7  2  0
  6  8  1  0
  8  9  2  0
  9 10  1  0
 10 11  2  0
 11 12  1  0
 12 13  2  0
 11 14  1  0
 14 15  2  3
 15 16  1  0
 16 17  1  0
 17 18  1  0
 18 19  1  0
 19 20  1  0
 14 21  1  0
 21 22  2  0
 22 23  1  0
 23 24  2  0
 24 25  1  0
 25 26  1  0
 24 27  1  0
 27 28  2  0
 13  8  1  0
 20 15  1  0
 28 21  1  0
M  END
>  <pIC50>  (14) 
5.17

>  <ChEMBL_ID>  (14) 
CHEMBL129693

>  <document_journal>  (14) 
J. Med. Chem.

>  <bao_endpoint>  (14) 
BAO_0000190

>  <potential_duplicate>  (14) 
False

>  <uo_units>  (14) 
UO_0000065

>  <canonical_smiles>  (14) 
CCN(CC)C(=O)c1ccc(cc1)C(=C2CCNCC2)c3ccc(SC)cc3

>  <parent_molecule_chembl_id>  (14) 
CHEMBL129693

>  <assay_type>  (14) 
B

>  <src_id>  (14) 
1

>  <ligand_efficiency>  (14) 
{u'le': u'0.25', u'bei': u'13.1', u'sei': u'8.97', u'lle': u'0.85'}

>  <standard_flag>  (14) 
True

>  <molecule_chembl_id>  (14) 
CHEMBL129693

>  <target_organism>  (14) 
Homo sapiens

>  <standard_units>  (14) 
nM

>  <record_id>  (14) 
243040

>  <document_chembl_id>  (14) 
CHEMBL1133469

>  <bao_format>  (14) 
BAO_0000219

>  <data_validity_description>  (14) 
None

>  <activity_id>  (14) 
55926

>  <standard_type>  (14) 
IC50

>  <target_chembl_id>  (14) 
CHEMBL233

>  <data_validity_comment>  (14) 
None

>  <published_value>  (14) 
6760

>  <document_year>  (14) 
2000

>  <target_pref_name>  (14) 
Mu opioid receptor

>  <assay_chembl_id>  (14) 
CHEMBL749749

>  <standard_relation>  (14) 
=

>  <assay_description>  (14) 
Binding affinity on cloned opioid receptor mu 1 in human HEK293S cells using [125I]FK33824 as radioligand.

>  <published_relation>  (14) 
=

>  <standard_value>  (14) 
6760

>  <qudt_units>  (14) 
http://www.openphacts.org/units/Nanomolar

>  <target_tax_id>  (14) 
9606

>  <bao_label>  (14) 
cell-based format

>  <published_units>  (14) 
nM

>  <pchembl_value>  (14) 
5.17

>  <published_type>  (14) 
IC50

>  <activity_comment>  (14) 
None

$$$$

     RDKit          

 30 33  0  0  0  0  0  0  0  0999 V2000
    0.0000    0.0000    0.0000 C   0  0  0  0  0  0  0  0  0  0  0  0
    0.0000    0.0000    0.0000 C   0  0  0  0  0  0  0  0  0  0  0  0
    0.0000    0.0000    0.0000 N   0  0  0  0  0  0  0  0  0  0  0  0
    0.0000    0.0000    0.0000 C   0  0  0  0  0  0  0  0  0  0  0  0
    0.0000    0.0000    0.0000 C   0  0  0  0  0  0  0  0  0  0  0  0
    0.0000    0.0000    0.0000 C   0  0  0  0  0  0  0  0  0  0  0  0
    0.0000    0.0000    0.0000 O   0  0  0  0  0  0  0  0  0  0  0  0
    0.0000    0.0000    0.0000 C   0  0  0  0  0  0  0  0  0  0  0  0
    0.0000    0.0000    0.0000 C   0  0  0  0  0  0  0  0  0  0  0  0
    0.0000    0.0000    0.0000 C   0  0  0  0  0  0  0  0  0  0  0  0
    0.0000    0.0000    0.0000 C   0  0  0  0  0  0  0  0  0  0  0  0
    0.0000    0.0000    0.0000 C   0  0  0  0  0  0  0  0  0  0  0  0
    0.0000    0.0000    0.0000 C   0  0  0  0  0  0  0  0  0  0  0  0
    0.0000    0.0000    0.0000 C   0  0  0  0  0  0  0  0  0  0  0  0
    0.0000    0.0000    0.0000 C   0  0  0  0  0  0  0  0  0  0  0  0
    0.0000    0.0000    0.0000 C   0  0  0  0  0  0  0  0  0  0  0  0
    0.0000    0.0000    0.0000 C   0  0  0  0  0  0  0  0  0  0  0  0
    0.0000    0.0000    0.0000 N   0  0  0  0  0  0  0  0  0  0  0  0
    0.0000    0.0000    0.0000 C   0  0  0  0  0  0  0  0  0  0  0  0
    0.0000    0.0000    0.0000 C   0  0  0  0  0  0  0  0  0  0  0  0
    0.0000    0.0000    0.0000 C   0  0  0  0  0  0  0  0  0  0  0  0
    0.0000    0.0000    0.0000 C   0  0  0  0  0  0  0  0  0  0  0  0
    0.0000    0.0000    0.0000 C   0  0  0  0  0  0  0  0  0  0  0  0
    0.0000    0.0000    0.0000 C   0  0  0  0  0  0  0  0  0  0  0  0
    0.0000    0.0000    0.0000 C   0  0  0  0  0  0  0  0  0  0  0  0
    0.0000    0.0000    0.0000 C   0  0  0  0  0  0  0  0  0  0  0  0
    0.0000    0.0000    0.0000 C   0  0  0  0  0  0  0  0  0  0  0  0
    0.0000    0.0000    0.0000 C   0  0  0  0  0  0  0  0  0  0  0  0
    0.0000    0.0000    0.0000 C   0  0  0  0  0  0  0  0  0  0  0  0
    0.0000    0.0000    0.0000 C   0  0  0  0  0  0  0  0  0  0  0  0
  1  2  1  0
  2  3  1  0
  3  4  1  0
  4  5  1  0
  3  6  1  0
  6  7  2  0
  6  8  1  0
  8  9  2  0
  9 10  1  0
 10 11  2  0
 11 12  1  0
 12 13  2  0
 11 14  1  0
 14 15  2  3
 15 16  1  0
 16 17  1  0
 17 18  1  0
 18 19  1  0
 19 20  1  0
 14 21  1  0
 21 22  2  0
 22 23  1  0
 23 24  2  0
 24 25  1  0
 25 26  2  0
 26 27  1  0
 27 28  2  0
 28 29  1  0
 29 30  2  0
 13  8  1  0
 20 15  1  0
 30 21  1  0
 30 25  1  0
M  END
>  <pIC50>  (15) 
6.09

>  <ChEMBL_ID>  (15) 
CHEMBL129034

>  <document_journal>  (15) 
J. Med. Chem.

>  <bao_endpoint>  (15) 
BAO_0000190

>  <potential_duplicate>  (15) 
False

>  <uo_units>  (15) 
UO_0000065

>  <canonical_smiles>  (15) 
CCN(CC)C(=O)c1ccc(cc1)C(=C2CCNCC2)c3cccc4ccccc34

>  <parent_molecule_chembl_id>  (15) 
CHEMBL129034

>  <assay_type>  (15) 
B

>  <src_id>  (15) 
1

>  <ligand_efficiency>  (15) 
{u'le': u'0.28', u'bei': u'15.28', u'sei': u'18.82', u'lle': u'1.4'}

>  <standard_flag>  (15) 
True

>  <molecule_chembl_id>  (15) 
CHEMBL129034

>  <target_organism>  (15) 
Homo sapiens

>  <standard_units>  (15) 
nM

>  <record_id>  (15) 
243055

>  <document_chembl_id>  (15) 
CHEMBL1133469

>  <bao_format>  (15) 
BAO_0000219

>  <data_validity_description>  (15) 
None

>  <activity_id>  (15) 
58371

>  <standard_type>  (15) 
IC50

>  <target_chembl_id>  (15) 
CHEMBL233

>  <data_validity_comment>  (15) 
None

>  <published_value>  (15) 
817

>  <document_year>  (15) 
2000

>  <target_pref_name>  (15) 
Mu opioid receptor

>  <assay_chembl_id>  (15) 
CHEMBL749749

>  <standard_relation>  (15) 
=

>  <assay_description>  (15) 
Binding affinity on cloned opioid receptor mu 1 in human HEK293S cells using [125I]FK33824 as radioligand.

>  <published_relation>  (15) 
=

>  <standard_value>  (15) 
817

>  <qudt_units>  (15) 
http://www.openphacts.org/units/Nanomolar

>  <target_tax_id>  (15) 
9606

>  <bao_label>  (15) 
cell-based format

>  <published_units>  (15) 
nM

>  <pchembl_value>  (15) 
6.09

>  <published_type>  (15) 
IC50

>  <activity_comment>  (15) 
None

$$$$

     RDKit          

 27 29  0  0  0  0  0  0  0  0999 V2000
    0.0000    0.0000    0.0000 C   0  0  0  0  0  0  0  0  0  0  0  0
    0.0000    0.0000    0.0000 C   0  0  0  0  0  0  0  0  0  0  0  0
    0.0000    0.0000    0.0000 N   0  0  0  0  0  0  0  0  0  0  0  0
    0.0000    0.0000    0.0000 C   0  0  0  0  0  0  0  0  0  0  0  0
    0.0000    0.0000    0.0000 C   0  0  0  0  0  0  0  0  0  0  0  0
    0.0000    0.0000    0.0000 C   0  0  0  0  0  0  0  0  0  0  0  0
    0.0000    0.0000    0.0000 O   0  0  0  0  0  0  0  0  0  0  0  0
    0.0000    0.0000    0.0000 C   0  0  0  0  0  0  0  0  0  0  0  0
    0.0000    0.0000    0.0000 C   0  0  0  0  0  0  0  0  0  0  0  0
    0.0000    0.0000    0.0000 C   0  0  0  0  0  0  0  0  0  0  0  0
    0.0000    0.0000    0.0000 C   0  0  0  0  0  0  0  0  0  0  0  0
    0.0000    0.0000    0.0000 C   0  0  0  0  0  0  0  0  0  0  0  0
    0.0000    0.0000    0.0000 C   0  0  0  0  0  0  0  0  0  0  0  0
    0.0000    0.0000    0.0000 C   0  0  0  0  0  0  0  0  0  0  0  0
    0.0000    0.0000    0.0000 C   0  0  0  0  0  0  0  0  0  0  0  0
    0.0000    0.0000    0.0000 C   0  0  0  0  0  0  0  0  0  0  0  0
    0.0000    0.0000    0.0000 C   0  0  0  0  0  0  0  0  0  0  0  0
    0.0000    0.0000    0.0000 N   0  0  0  0  0  0  0  0  0  0  0  0
    0.0000    0.0000    0.0000 C   0  0  0  0  0  0  0  0  0  0  0  0
    0.0000    0.0000    0.0000 C   0  0  0  0  0  0  0  0  0  0  0  0
    0.0000    0.0000    0.0000 C   0  0  0  0  0  0  0  0  0  0  0  0
    0.0000    0.0000    0.0000 C   0  0  0  0  0  0  0  0  0  0  0  0
    0.0000    0.0000    0.0000 C   0  0  0  0  0  0  0  0  0  0  0  0
    0.0000    0.0000    0.0000 C   0  0  0  0  0  0  0  0  0  0  0  0
    0.0000    0.0000    0.0000 C   0  0  0  0  0  0  0  0  0  0  0  0
    0.0000    0.0000    0.0000 N   0  0  0  0  0  0  0  0  0  0  0  0
    0.0000    0.0000    0.0000 C   0  0  0  0  0  0  0  0  0  0  0  0
  1  2  1  0
  2  3  1  0
  3  4  1  0
  4  5  1  0
  3  6  1  0
  6  7  2  0
  6  8  1  0
  8  9  2  0
  9 10  1  0
 10 11  2  0
 11 12  1  0
 12 13  2  0
 11 14  1  0
 14 15  2  3
 15 16  1  0
 16 17  1  0
 17 18  1  0
 18 19  1  0
 19 20  1  0
 14 21  1  0
 21 22  2  0
 22 23  1  0
 23 24  2  0
 24 25  1  0
 25 26  1  0
 25 27  2  0
 13  8  1  0
 20 15  1  0
 27 21  1  0
M  END
>  <pIC50>  (16) 
5.22

>  <ChEMBL_ID>  (16) 
CHEMBL127495

>  <document_journal>  (16) 
J. Med. Chem.

>  <bao_endpoint>  (16) 
BAO_0000190

>  <potential_duplicate>  (16) 
False

>  <uo_units>  (16) 
UO_0000065

>  <canonical_smiles>  (16) 
CCN(CC)C(=O)c1ccc(cc1)C(=C2CCNCC2)c3cccc(N)c3

>  <parent_molecule_chembl_id>  (16) 
CHEMBL127495

>  <assay_type>  (16) 
B

>  <src_id>  (16) 
1

>  <ligand_efficiency>  (16) 
{u'le': u'0.26', u'bei': u'14.37', u'sei': u'8.95', u'lle': u'2.18'}

>  <standard_flag>  (16) 
True

>  <molecule_chembl_id>  (16) 
CHEMBL127495

>  <target_organism>  (16) 
Homo sapiens

>  <standard_units>  (16) 
nM

>  <record_id>  (16) 
243039

>  <document_chembl_id>  (16) 
CHEMBL1133469

>  <bao_format>  (16) 
BAO_0000219

>  <data_validity_description>  (16) 
None

>  <activity_id>  (16) 
58378

>  <standard_type>  (16) 
IC50

>  <target_chembl_id>  (16) 
CHEMBL233

>  <data_validity_comment>  (16) 
None

>  <published_value>  (16) 
5980

>  <document_year>  (16) 
2000

>  <target_pref_name>  (16) 
Mu opioid receptor

>  <assay_chembl_id>  (16) 
CHEMBL749749

>  <standard_relation>  (16) 
=

>  <assay_description>  (16) 
Binding affinity on cloned opioid receptor mu 1 in human HEK293S cells using [125I]FK33824 as radioligand.

>  <published_relation>  (16) 
=

>  <standard_value>  (16) 
5980

>  <qudt_units>  (16) 
http://www.openphacts.org/units/Nanomolar

>  <target_tax_id>  (16) 
9606

>  <bao_label>  (16) 
cell-based format

>  <published_units>  (16) 
nM

>  <pchembl_value>  (16) 
5.22

>  <published_type>  (16) 
IC50

>  <activity_comment>  (16) 
None

$$$$

     RDKit          

 32 35  0  0  0  0  0  0  0  0999 V2000
    0.0000    0.0000    0.0000 C   0  0  0  0  0  0  0  0  0  0  0  0
    0.0000    0.0000    0.0000 C   0  0  0  0  0  0  0  0  0  0  0  0
    0.0000    0.0000    0.0000 N   0  0  0  0  0  0  0  0  0  0  0  0
    0.0000    0.0000    0.0000 C   0  0  0  0  0  0  0  0  0  0  0  0
    0.0000    0.0000    0.0000 C   0  0  0  0  0  0  0  0  0  0  0  0
    0.0000    0.0000    0.0000 C   0  0  0  0  0  0  0  0  0  0  0  0
    0.0000    0.0000    0.0000 O   0  0  0  0  0  0  0  0  0  0  0  0
    0.0000    0.0000    0.0000 C   0  0  0  0  0  0  0  0  0  0  0  0
    0.0000    0.0000    0.0000 C   0  0  0  0  0  0  0  0  0  0  0  0
    0.0000    0.0000    0.0000 C   0  0  0  0  0  0  0  0  0  0  0  0
    0.0000    0.0000    0.0000 C   0  0  0  0  0  0  0  0  0  0  0  0
    0.0000    0.0000    0.0000 C   0  0  0  0  0  0  0  0  0  0  0  0
    0.0000    0.0000    0.0000 C   0  0  0  0  0  0  0  0  0  0  0  0
    0.0000    0.0000    0.0000 C   0  0  0  0  0  0  0  0  0  0  0  0
    0.0000    0.0000    0.0000 C   0  0  0  0  0  0  0  0  0  0  0  0
    0.0000    0.0000    0.0000 C   0  0  0  0  0  0  0  0  0  0  0  0
    0.0000    0.0000    0.0000 C   0  0  0  0  0  0  0  0  0  0  0  0
    0.0000    0.0000    0.0000 N   0  0  0  0  0  0  0  0  0  0  0  0
    0.0000    0.0000    0.0000 C   0  0  0  0  0  0  0  0  0  0  0  0
    0.0000    0.0000    0.0000 C   0  0  0  0  0  0  0  0  0  0  0  0
    0.0000    0.0000    0.0000 C   0  0  0  0  0  0  0  0  0  0  0  0
    0.0000    0.0000    0.0000 C   0  0  0  0  0  0  0  0  0  0  0  0
    0.0000    0.0000    0.0000 C   0  0  0  0  0  0  0  0  0  0  0  0
    0.0000    0.0000    0.0000 C   0  0  0  0  0  0  0  0  0  0  0  0
    0.0000    0.0000    0.0000 C   0  0  0  0  0  0  0  0  0  0  0  0
    0.0000    0.0000    0.0000 C   0  0  0  0  0  0  0  0  0  0  0  0
    0.0000    0.0000    0.0000 C   0  0  0  0  0  0  0  0  0  0  0  0
    0.0000    0.0000    0.0000 C   0  0  0  0  0  0  0  0  0  0  0  0
    0.0000    0.0000    0.0000 C   0  0  0  0  0  0  0  0  0  0  0  0
    0.0000    0.0000    0.0000 C   0  0  0  0  0  0  0  0  0  0  0  0
    0.0000    0.0000    0.0000 C   0  0  0  0  0  0  0  0  0  0  0  0
    0.0000    0.0000    0.0000 C   0  0  0  0  0  0  0  0  0  0  0  0
  1  2  1  0
  2  3  1  0
  3  4  1  0
  4  5  1  0
  3  6  1  0
  6  7  2  0
  6  8  1  0
  8  9  2  0
  9 10  1  0
 10 11  2  0
 11 12  1  0
 12 13  2  0
 11 14  1  0
 14 15  2  3
 15 16  1  0
 16 17  1  0
 17 18  1  0
 18 19  1  0
 19 20  1  0
 18 21  1  0
 21 22  1  0
 22 23  1  0
 23 24  1  0
 24 25  1  0
 25 26  1  0
 14 27  1  0
 27 28  2  0
 28 29  1  0
 29 30  2  0
 30 31  1  0
 31 32  2  0
 13  8  1  0
 20 15  1  0
 26 21  1  0
 32 27  1  0
M  END
>  <pIC50>  (17) 
6.22

>  <ChEMBL_ID>  (17) 
CHEMBL340476

>  <document_journal>  (17) 
J. Med. Chem.

>  <bao_endpoint>  (17) 
BAO_0000190

>  <potential_duplicate>  (17) 
False

>  <uo_units>  (17) 
UO_0000065

>  <canonical_smiles>  (17) 
CCN(CC)C(=O)c1ccc(cc1)C(=C2CCN(CC2)C3CCCCC3)c4ccccc4

>  <parent_molecule_chembl_id>  (17) 
CHEMBL340476

>  <assay_type>  (17) 
B

>  <src_id>  (17) 
1

>  <ligand_efficiency>  (17) 
{u'le': u'0.27', u'bei': u'14.45', u'sei': u'26.43', u'lle': u'0.04'}

>  <standard_flag>  (17) 
True

>  <molecule_chembl_id>  (17) 
CHEMBL340476

>  <target_organism>  (17) 
Homo sapiens

>  <standard_units>  (17) 
nM

>  <record_id>  (17) 
243045

>  <document_chembl_id>  (17) 
CHEMBL1133469

>  <bao_format>  (17) 
BAO_0000219

>  <data_validity_description>  (17) 
None

>  <activity_id>  (17) 
58385

>  <standard_type>  (17) 
IC50

>  <target_chembl_id>  (17) 
CHEMBL233

>  <data_validity_comment>  (17) 
None

>  <published_value>  (17) 
597

>  <document_year>  (17) 
2000

>  <target_pref_name>  (17) 
Mu opioid receptor

>  <assay_chembl_id>  (17) 
CHEMBL749749

>  <standard_relation>  (17) 
=

>  <assay_description>  (17) 
Binding affinity on cloned opioid receptor mu 1 in human HEK293S cells using [125I]FK33824 as radioligand.

>  <published_relation>  (17) 
=

>  <standard_value>  (17) 
597

>  <qudt_units>  (17) 
http://www.openphacts.org/units/Nanomolar

>  <target_tax_id>  (17) 
9606

>  <bao_label>  (17) 
cell-based format

>  <published_units>  (17) 
nM

>  <pchembl_value>  (17) 
6.22

>  <published_type>  (17) 
IC50

>  <activity_comment>  (17) 
None

$$$$

     RDKit          

 31 33  0  0  0  0  0  0  0  0999 V2000
    0.0000    0.0000    0.0000 C   0  0  0  0  0  0  0  0  0  0  0  0
    0.0000    0.0000    0.0000 C   0  0  0  0  0  0  0  0  0  0  0  0
    0.0000    0.0000    0.0000 N   0  0  0  0  0  0  0  0  0  0  0  0
    0.0000    0.0000    0.0000 C   0  0  0  0  0  0  0  0  0  0  0  0
    0.0000    0.0000    0.0000 C   0  0  0  0  0  0  0  0  0  0  0  0
    0.0000    0.0000    0.0000 C   0  0  0  0  0  0  0  0  0  0  0  0
    0.0000    0.0000    0.0000 O   0  0  0  0  0  0  0  0  0  0  0  0
    0.0000    0.0000    0.0000 C   0  0  0  0  0  0  0  0  0  0  0  0
    0.0000    0.0000    0.0000 C   0  0  0  0  0  0  0  0  0  0  0  0
    0.0000    0.0000    0.0000 C   0  0  0  0  0  0  0  0  0  0  0  0
    0.0000    0.0000    0.0000 C   0  0  0  0  0  0  0  0  0  0  0  0
    0.0000    0.0000    0.0000 C   0  0  0  0  0  0  0  0  0  0  0  0
    0.0000    0.0000    0.0000 C   0  0  0  0  0  0  0  0  0  0  0  0
    0.0000    0.0000    0.0000 C   0  0  0  0  0  0  0  0  0  0  0  0
    0.0000    0.0000    0.0000 C   0  0  0  0  0  0  0  0  0  0  0  0
    0.0000    0.0000    0.0000 C   0  0  0  0  0  0  0  0  0  0  0  0
    0.0000    0.0000    0.0000 C   0  0  0  0  0  0  0  0  0  0  0  0
    0.0000    0.0000    0.0000 N   0  0  0  0  0  0  0  0  0  0  0  0
    0.0000    0.0000    0.0000 C   0  0  0  0  0  0  0  0  0  0  0  0
    0.0000    0.0000    0.0000 C   0  0  0  0  0  0  0  0  0  0  0  0
    0.0000    0.0000    0.0000 C   0  0  0  0  0  0  0  0  0  0  0  0
    0.0000    0.0000    0.0000 C   0  0  0  0  0  0  0  0  0  0  0  0
    0.0000    0.0000    0.0000 C   0  0  0  0  0  0  0  0  0  0  0  0
    0.0000    0.0000    0.0000 C   0  0  0  0  0  0  0  0  0  0  0  0
    0.0000    0.0000    0.0000 C   0  0  0  0  0  0  0  0  0  0  0  0
    0.0000    0.0000    0.0000 C   0  0  0  0  0  0  0  0  0  0  0  0
    0.0000    0.0000    0.0000 C   0  0  0  0  0  0  0  0  0  0  0  0
    0.0000    0.0000    0.0000 C   0  0  0  0  0  0  0  0  0  0  0  0
    0.0000    0.0000    0.0000 C   0  0  0  0  0  0  0  0  0  0  0  0
    0.0000    0.0000    0.0000 C   0  0  0  0  0  0  0  0  0  0  0  0
    0.0000    0.0000    0.0000 C   0  0  0  0  0  0  0  0  0  0  0  0
  1  2  1  0
  2  3  1  0
  3  4  1  0
  4  5  1  0
  3  6  1  0
  6  7  2  0
  6  8  1  0
  8  9  2  0
  9 10  1  0
 10 11  2  0
 11 12  1  0
 12 13  2  0
 11 14  1  0
 14 15  2  3
 15 16  1  0
 16 17  1  0
 17 18  1  0
 18 19  1  0
 19 20  1  0
 20 21  2  3
 21 22  1  0
 21 23  1  0
 18 24  1  0
 24 25  1  0
 14 26  1  0
 26 27  2  0
 27 28  1  0
 28 29  2  0
 29 30  1  0
 30 31  2  0
 13  8  1  0
 25 15  1  0
 31 26  1  0
M  END
>  <pIC50>  (18) 
5.99

>  <ChEMBL_ID>  (18) 
CHEMBL126141

>  <document_journal>  (18) 
J. Med. Chem.

>  <bao_endpoint>  (18) 
BAO_0000190

>  <potential_duplicate>  (18) 
False

>  <uo_units>  (18) 
UO_0000065

>  <canonical_smiles>  (18) 
CCN(CC)C(=O)c1ccc(cc1)C(=C2CCN(CC=C(C)C)CC2)c3ccccc3

>  <parent_molecule_chembl_id>  (18) 
CHEMBL126141

>  <assay_type>  (18) 
B

>  <src_id>  (18) 
1

>  <ligand_efficiency>  (18) 
{u'le': u'0.26', u'bei': u'14.37', u'sei': u'25.42', u'lle': u'0.21'}

>  <standard_flag>  (18) 
True

>  <molecule_chembl_id>  (18) 
CHEMBL126141

>  <target_organism>  (18) 
Homo sapiens

>  <standard_units>  (18) 
nM

>  <record_id>  (18) 
243048

>  <document_chembl_id>  (18) 
CHEMBL1133469

>  <bao_format>  (18) 
BAO_0000219

>  <data_validity_description>  (18) 
None

>  <activity_id>  (18) 
59640

>  <standard_type>  (18) 
IC50

>  <target_chembl_id>  (18) 
CHEMBL233

>  <data_validity_comment>  (18) 
None

>  <published_value>  (18) 
1030

>  <document_year>  (18) 
2000

>  <target_pref_name>  (18) 
Mu opioid receptor

>  <assay_chembl_id>  (18) 
CHEMBL749749

>  <standard_relation>  (18) 
=

>  <assay_description>  (18) 
Binding affinity on cloned opioid receptor mu 1 in human HEK293S cells using [125I]FK33824 as radioligand.

>  <published_relation>  (18) 
=

>  <standard_value>  (18) 
1030

>  <qudt_units>  (18) 
http://www.openphacts.org/units/Nanomolar

>  <target_tax_id>  (18) 
9606

>  <bao_label>  (18) 
cell-based format

>  <published_units>  (18) 
nM

>  <pchembl_value>  (18) 
5.99

>  <published_type>  (18) 
IC50

>  <activity_comment>  (18) 
None

$$$$

     RDKit          

 27 29  0  0  0  0  0  0  0  0999 V2000
    0.0000    0.0000    0.0000 C   0  0  0  0  0  0  0  0  0  0  0  0
    0.0000    0.0000    0.0000 C   0  0  0  0  0  0  0  0  0  0  0  0
    0.0000    0.0000    0.0000 N   0  0  0  0  0  0  0  0  0  0  0  0
    0.0000    0.0000    0.0000 C   0  0  0  0  0  0  0  0  0  0  0  0
    0.0000    0.0000    0.0000 C   0  0  0  0  0  0  0  0  0  0  0  0
    0.0000    0.0000    0.0000 C   0  0  0  0  0  0  0  0  0  0  0  0
    0.0000    0.0000    0.0000 O   0  0  0  0  0  0  0  0  0  0  0  0
    0.0000    0.0000    0.0000 C   0  0  0  0  0  0  0  0  0  0  0  0
    0.0000    0.0000    0.0000 C   0  0  0  0  0  0  0  0  0  0  0  0
    0.0000    0.0000    0.0000 C   0  0  0  0  0  0  0  0  0  0  0  0
    0.0000    0.0000    0.0000 C   0  0  0  0  0  0  0  0  0  0  0  0
    0.0000    0.0000    0.0000 C   0  0  0  0  0  0  0  0  0  0  0  0
    0.0000    0.0000    0.0000 C   0  0  0  0  0  0  0  0  0  0  0  0
    0.0000    0.0000    0.0000 C   0  0  0  0  0  0  0  0  0  0  0  0
    0.0000    0.0000    0.0000 C   0  0  0  0  0  0  0  0  0  0  0  0
    0.0000    0.0000    0.0000 C   0  0  0  0  0  0  0  0  0  0  0  0
    0.0000    0.0000    0.0000 C   0  0  0  0  0  0  0  0  0  0  0  0
    0.0000    0.0000    0.0000 N   0  0  0  0  0  0  0  0  0  0  0  0
    0.0000    0.0000    0.0000 C   0  0  0  0  0  0  0  0  0  0  0  0
    0.0000    0.0000    0.0000 C   0  0  0  0  0  0  0  0  0  0  0  0
    0.0000    0.0000    0.0000 C   0  0  0  0  0  0  0  0  0  0  0  0
    0.0000    0.0000    0.0000 C   0  0  0  0  0  0  0  0  0  0  0  0
    0.0000    0.0000    0.0000 C   0  0  0  0  0  0  0  0  0  0  0  0
    0.0000    0.0000    0.0000 C   0  0  0  0  0  0  0  0  0  0  0  0
    0.0000    0.0000    0.0000 C   0  0  0  0  0  0  0  0  0  0  0  0
    0.0000    0.0000    0.0000 C   0  0  0  0  0  0  0  0  0  0  0  0
    0.0000    0.0000    0.0000 F   0  0  0  0  0  0  0  0  0  0  0  0
  1  2  1  0
  2  3  1  0
  3  4  1  0
  4  5  1  0
  3  6  1  0
  6  7  2  0
  6  8  1  0
  8  9  2  0
  9 10  1  0
 10 11  2  0
 11 12  1  0
 12 13  2  0
 11 14  1  0
 14 15  2  3
 15 16  1  0
 16 17  1  0
 17 18  1  0
 18 19  1  0
 19 20  1  0
 14 21  1  0
 21 22  2  0
 22 23  1  0
 23 24  2  0
 24 25  1  0
 25 26  2  0
 26 27  1  0
 13  8  1  0
 20 15  1  0
 26 21  1  0
M  END
>  <pIC50>  (19) 
5.53

>  <ChEMBL_ID>  (19) 
CHEMBL126370

>  <document_journal>  (19) 
J. Med. Chem.

>  <bao_endpoint>  (19) 
BAO_0000190

>  <potential_duplicate>  (19) 
False

>  <uo_units>  (19) 
UO_0000065

>  <canonical_smiles>  (19) 
CCN(CC)C(=O)c1ccc(cc1)C(=C2CCNCC2)c3ccccc3F

>  <parent_molecule_chembl_id>  (19) 
CHEMBL126370

>  <assay_type>  (19) 
B

>  <src_id>  (19) 
1

>  <ligand_efficiency>  (19) 
{u'le': u'0.28', u'bei': u'15.08', u'sei': u'17.09', u'lle': u'1.54'}

>  <standard_flag>  (19) 
True

>  <molecule_chembl_id>  (19) 
CHEMBL126370

>  <target_organism>  (19) 
Homo sapiens

>  <standard_units>  (19) 
nM

>  <record_id>  (19) 
243042

>  <document_chembl_id>  (19) 
CHEMBL1133469

>  <bao_format>  (19) 
BAO_0000219

>  <data_validity_description>  (19) 
None

>  <activity_id>  (19) 
62358

>  <standard_type>  (19) 
IC50

>  <target_chembl_id>  (19) 
CHEMBL233

>  <data_validity_comment>  (19) 
None

>  <published_value>  (19) 
2980

>  <document_year>  (19) 
2000

>  <target_pref_name>  (19) 
Mu opioid receptor

>  <assay_chembl_id>  (19) 
CHEMBL749749

>  <standard_relation>  (19) 
=

>  <assay_description>  (19) 
Binding affinity on cloned opioid receptor mu 1 in human HEK293S cells using [125I]FK33824 as radioligand.

>  <published_relation>  (19) 
=

>  <standard_value>  (19) 
2980

>  <qudt_units>  (19) 
http://www.openphacts.org/units/Nanomolar

>  <target_tax_id>  (19) 
9606

>  <bao_label>  (19) 
cell-based format

>  <published_units>  (19) 
nM

>  <pchembl_value>  (19) 
5.53

>  <published_type>  (19) 
IC50

>  <activity_comment>  (19) 
None

$$$$

     RDKit          

 28 30  0  0  0  0  0  0  0  0999 V2000
    0.0000    0.0000    0.0000 C   0  0  0  0  0  0  0  0  0  0  0  0
    0.0000    0.0000    0.0000 C   0  0  0  0  0  0  0  0  0  0  0  0
    0.0000    0.0000    0.0000 N   0  0  0  0  0  0  0  0  0  0  0  0
    0.0000    0.0000    0.0000 C   0  0  0  0  0  0  0  0  0  0  0  0
    0.0000    0.0000    0.0000 C   0  0  0  0  0  0  0  0  0  0  0  0
    0.0000    0.0000    0.0000 C   0  0  0  0  0  0  0  0  0  0  0  0
    0.0000    0.0000    0.0000 O   0  0  0  0  0  0  0  0  0  0  0  0
    0.0000    0.0000    0.0000 C   0  0  0  0  0  0  0  0  0  0  0  0
    0.0000    0.0000    0.0000 C   0  0  0  0  0  0  0  0  0  0  0  0
    0.0000    0.0000    0.0000 C   0  0  0  0  0  0  0  0  0  0  0  0
    0.0000    0.0000    0.0000 C   0  0  0  0  0  0  0  0  0  0  0  0
    0.0000    0.0000    0.0000 C   0  0  0  0  0  0  0  0  0  0  0  0
    0.0000    0.0000    0.0000 C   0  0  0  0  0  0  0  0  0  0  0  0
    0.0000    0.0000    0.0000 C   0  0  0  0  0  0  0  0  0  0  0  0
    0.0000    0.0000    0.0000 C   0  0  0  0  0  0  0  0  0  0  0  0
    0.0000    0.0000    0.0000 C   0  0  0  0  0  0  0  0  0  0  0  0
    0.0000    0.0000    0.0000 C   0  0  0  0  0  0  0  0  0  0  0  0
    0.0000    0.0000    0.0000 N   0  0  0  0  0  0  0  0  0  0  0  0
    0.0000    0.0000    0.0000 C   0  0  0  0  0  0  0  0  0  0  0  0
    0.0000    0.0000    0.0000 C   0  0  0  0  0  0  0  0  0  0  0  0
    0.0000    0.0000    0.0000 C   0  0  0  0  0  0  0  0  0  0  0  0
    0.0000    0.0000    0.0000 C   0  0  0  0  0  0  0  0  0  0  0  0
    0.0000    0.0000    0.0000 C   0  0  0  0  0  0  0  0  0  0  0  0
    0.0000    0.0000    0.0000 C   0  0  0  0  0  0  0  0  0  0  0  0
    0.0000    0.0000    0.0000 O   0  0  0  0  0  0  0  0  0  0  0  0
    0.0000    0.0000    0.0000 C   0  0  0  0  0  0  0  0  0  0  0  0
    0.0000    0.0000    0.0000 C   0  0  0  0  0  0  0  0  0  0  0  0
    0.0000    0.0000    0.0000 C   0  0  0  0  0  0  0  0  0  0  0  0
  1  2  1  0
  2  3  1  0
  3  4  1  0
  4  5  1  0
  3  6  1  0
  6  7  2  0
  6  8  1  0
  8  9  2  0
  9 10  1  0
 10 11  2  0
 11 12  1  0
 12 13  2  0
 11 14  1  0
 14 15  2  3
 15 16  1  0
 16 17  1  0
 17 18  1  0
 18 19  1  0
 19 20  1  0
 14 21  1  0
 21 22  2  0
 22 23  1  0
 23 24  2  0
 24 25  1  0
 25 26  1  0
 24 27  1  0
 27 28  2  0
 13  8  1  0
 20 15  1  0
 28 21  1  0
M  END
>  <pIC50>  (20) 
5.26

>  <ChEMBL_ID>  (20) 
CHEMBL339922

>  <document_journal>  (20) 
J. Med. Chem.

>  <bao_endpoint>  (20) 
BAO_0000190

>  <potential_duplicate>  (20) 
False

>  <uo_units>  (20) 
UO_0000065

>  <canonical_smiles>  (20) 
CCN(CC)C(=O)c1ccc(cc1)C(=C2CCNCC2)c3ccc(OC)cc3

>  <parent_molecule_chembl_id>  (20) 
CHEMBL339922

>  <assay_type>  (20) 
B

>  <src_id>  (20) 
1

>  <ligand_efficiency>  (20) 
{u'le': u'0.26', u'bei': u'13.91', u'sei': u'12.66', u'lle': u'1.49'}

>  <standard_flag>  (20) 
True

>  <molecule_chembl_id>  (20) 
CHEMBL339922

>  <target_organism>  (20) 
Homo sapiens

>  <standard_units>  (20) 
nM

>  <record_id>  (20) 
243038

>  <document_chembl_id>  (20) 
CHEMBL1133469

>  <bao_format>  (20) 
BAO_0000219

>  <data_validity_description>  (20) 
None

>  <activity_id>  (20) 
66348

>  <standard_type>  (20) 
IC50

>  <target_chembl_id>  (20) 
CHEMBL233

>  <data_validity_comment>  (20) 
None

>  <published_value>  (20) 
5440

>  <document_year>  (20) 
2000

>  <target_pref_name>  (20) 
Mu opioid receptor

>  <assay_chembl_id>  (20) 
CHEMBL749749

>  <standard_relation>  (20) 
=

>  <assay_description>  (20) 
Binding affinity on cloned opioid receptor mu 1 in human HEK293S cells using [125I]FK33824 as radioligand.

>  <published_relation>  (20) 
=

>  <standard_value>  (20) 
5440

>  <qudt_units>  (20) 
http://www.openphacts.org/units/Nanomolar

>  <target_tax_id>  (20) 
9606

>  <bao_label>  (20) 
cell-based format

>  <published_units>  (20) 
nM

>  <pchembl_value>  (20) 
5.26

>  <published_type>  (20) 
IC50

>  <activity_comment>  (20) 
None

$$$$

     RDKit          

 30 32  0  0  0  0  0  0  0  0999 V2000
    0.0000    0.0000    0.0000 C   0  0  0  0  0  0  0  0  0  0  0  0
    0.0000    0.0000    0.0000 C   0  0  0  0  0  0  0  0  0  0  0  0
    0.0000    0.0000    0.0000 N   0  0  0  0  0  0  0  0  0  0  0  0
    0.0000    0.0000    0.0000 C   0  0  0  0  0  0  0  0  0  0  0  0
    0.0000    0.0000    0.0000 C   0  0  0  0  0  0  0  0  0  0  0  0
    0.0000    0.0000    0.0000 C   0  0  0  0  0  0  0  0  0  0  0  0
    0.0000    0.0000    0.0000 O   0  0  0  0  0  0  0  0  0  0  0  0
    0.0000    0.0000    0.0000 C   0  0  0  0  0  0  0  0  0  0  0  0
    0.0000    0.0000    0.0000 C   0  0  0  0  0  0  0  0  0  0  0  0
    0.0000    0.0000    0.0000 C   0  0  0  0  0  0  0  0  0  0  0  0
    0.0000    0.0000    0.0000 C   0  0  0  0  0  0  0  0  0  0  0  0
    0.0000    0.0000    0.0000 C   0  0  0  0  0  0  0  0  0  0  0  0
    0.0000    0.0000    0.0000 C   0  0  0  0  0  0  0  0  0  0  0  0
    0.0000    0.0000    0.0000 C   0  0  0  0  0  0  0  0  0  0  0  0
    0.0000    0.0000    0.0000 C   0  0  0  0  0  0  0  0  0  0  0  0
    0.0000    0.0000    0.0000 C   0  0  0  0  0  0  0  0  0  0  0  0
    0.0000    0.0000    0.0000 C   0  0  0  0  0  0  0  0  0  0  0  0
    0.0000    0.0000    0.0000 N   0  0  0  0  0  0  0  0  0  0  0  0
    0.0000    0.0000    0.0000 C   0  0  0  0  0  0  0  0  0  0  0  0
    0.0000    0.0000    0.0000 C   0  0  0  0  0  0  0  0  0  0  0  0
    0.0000    0.0000    0.0000 C   0  0  0  0  0  0  0  0  0  0  0  0
    0.0000    0.0000    0.0000 C   0  0  0  0  0  0  0  0  0  0  0  0
    0.0000    0.0000    0.0000 C   0  0  0  0  0  0  0  0  0  0  0  0
    0.0000    0.0000    0.0000 C   0  0  0  0  0  0  0  0  0  0  0  0
    0.0000    0.0000    0.0000 C   0  0  0  0  0  0  0  0  0  0  0  0
    0.0000    0.0000    0.0000 C   0  0  0  0  0  0  0  0  0  0  0  0
    0.0000    0.0000    0.0000 C   0  0  0  0  0  0  0  0  0  0  0  0
    0.0000    0.0000    0.0000 F   0  0  0  0  0  0  0  0  0  0  0  0
    0.0000    0.0000    0.0000 F   0  0  0  0  0  0  0  0  0  0  0  0
    0.0000    0.0000    0.0000 F   0  0  0  0  0  0  0  0  0  0  0  0
  1  2  1  0
  2  3  1  0
  3  4  1  0
  4  5  1  0
  3  6  1  0
  6  7  2  0
  6  8  1  0
  8  9  2  0
  9 10  1  0
 10 11  2  0
 11 12  1  0
 12 13  2  0
 11 14  1  0
 14 15  2  3
 15 16  1  0
 16 17  1  0
 17 18  1  0
 18 19  1  0
 19 20  1  0
 14 21  1  0
 21 22  2  0
 22 23  1  0
 23 24  2  0
 24 25  1  0
 25 26  2  0
 25 27  1  0
 27 28  1  0
 27 29  1  0
 27 30  1  0
 13  8  1  0
 20 15  1  0
 26 21  1  0
M  END
>  <pIC50>  (21) 
5.82

>  <ChEMBL_ID>  (21) 
CHEMBL339898

>  <document_journal>  (21) 
J. Med. Chem.

>  <bao_endpoint>  (21) 
BAO_0000190

>  <potential_duplicate>  (21) 
False

>  <uo_units>  (21) 
UO_0000065

>  <canonical_smiles>  (21) 
CCN(CC)C(=O)c1ccc(cc1)C(=C2CCNCC2)c3cccc(c3)C(F)(F)F

>  <parent_molecule_chembl_id>  (21) 
CHEMBL339898

>  <assay_type>  (21) 
B

>  <src_id>  (21) 
1

>  <ligand_efficiency>  (21) 
{u'le': u'0.26', u'bei': u'13.98', u'sei': u'18', u'lle': u'1.1'}

>  <standard_flag>  (21) 
True

>  <molecule_chembl_id>  (21) 
CHEMBL339898

>  <target_organism>  (21) 
Homo sapiens

>  <standard_units>  (21) 
nM

>  <record_id>  (21) 
243051

>  <document_chembl_id>  (21) 
CHEMBL1133469

>  <bao_format>  (21) 
BAO_0000219

>  <data_validity_description>  (21) 
None

>  <activity_id>  (21) 
68836

>  <standard_type>  (21) 
IC50

>  <target_chembl_id>  (21) 
CHEMBL233

>  <data_validity_comment>  (21) 
None

>  <published_value>  (21) 
1510

>  <document_year>  (21) 
2000

>  <target_pref_name>  (21) 
Mu opioid receptor

>  <assay_chembl_id>  (21) 
CHEMBL749749

>  <standard_relation>  (21) 
=

>  <assay_description>  (21) 
Binding affinity on cloned opioid receptor mu 1 in human HEK293S cells using [125I]FK33824 as radioligand.

>  <published_relation>  (21) 
=

>  <standard_value>  (21) 
1510

>  <qudt_units>  (21) 
http://www.openphacts.org/units/Nanomolar

>  <target_tax_id>  (21) 
9606

>  <bao_label>  (21) 
cell-based format

>  <published_units>  (21) 
nM

>  <pchembl_value>  (21) 
5.82

>  <published_type>  (21) 
IC50

>  <activity_comment>  (21) 
None

$$$$

     RDKit          

 29 31  0  0  0  0  0  0  0  0999 V2000
    0.0000    0.0000    0.0000 C   0  0  0  0  0  0  0  0  0  0  0  0
    0.0000    0.0000    0.0000 C   0  0  0  0  0  0  0  0  0  0  0  0
    0.0000    0.0000    0.0000 N   0  0  0  0  0  0  0  0  0  0  0  0
    0.0000    0.0000    0.0000 C   0  0  0  0  0  0  0  0  0  0  0  0
    0.0000    0.0000    0.0000 C   0  0  0  0  0  0  0  0  0  0  0  0
    0.0000    0.0000    0.0000 C   0  0  0  0  0  0  0  0  0  0  0  0
    0.0000    0.0000    0.0000 O   0  0  0  0  0  0  0  0  0  0  0  0
    0.0000    0.0000    0.0000 C   0  0  0  0  0  0  0  0  0  0  0  0
    0.0000    0.0000    0.0000 C   0  0  0  0  0  0  0  0  0  0  0  0
    0.0000    0.0000    0.0000 C   0  0  0  0  0  0  0  0  0  0  0  0
    0.0000    0.0000    0.0000 C   0  0  0  0  0  0  0  0  0  0  0  0
    0.0000    0.0000    0.0000 C   0  0  0  0  0  0  0  0  0  0  0  0
    0.0000    0.0000    0.0000 C   0  0  0  0  0  0  0  0  0  0  0  0
    0.0000    0.0000    0.0000 C   0  0  0  0  0  0  0  0  0  0  0  0
    0.0000    0.0000    0.0000 C   0  0  0  0  0  0  0  0  0  0  0  0
    0.0000    0.0000    0.0000 C   0  0  0  0  0  0  0  0  0  0  0  0
    0.0000    0.0000    0.0000 C   0  0  0  0  0  0  0  0  0  0  0  0
    0.0000    0.0000    0.0000 N   0  0  0  0  0  0  0  0  0  0  0  0
    0.0000    0.0000    0.0000 C   0  0  0  0  0  0  0  0  0  0  0  0
    0.0000    0.0000    0.0000 C   0  0  0  0  0  0  0  0  0  0  0  0
    0.0000    0.0000    0.0000 C   0  0  0  0  0  0  0  0  0  0  0  0
    0.0000    0.0000    0.0000 C   0  0  0  0  0  0  0  0  0  0  0  0
    0.0000    0.0000    0.0000 C   0  0  0  0  0  0  0  0  0  0  0  0
    0.0000    0.0000    0.0000 C   0  0  0  0  0  0  0  0  0  0  0  0
    0.0000    0.0000    0.0000 C   0  0  0  0  0  0  0  0  0  0  0  0
    0.0000    0.0000    0.0000 C   0  0  0  0  0  0  0  0  0  0  0  0
    0.0000    0.0000    0.0000 C   0  0  0  0  0  0  0  0  0  0  0  0
    0.0000    0.0000    0.0000 O   0  0  0  0  0  0  0  0  0  0  0  0
    0.0000    0.0000    0.0000 C   0  0  0  0  0  0  0  0  0  0  0  0
  1  2  1  0
  2  3  1  0
  3  4  1  0
  4  5  1  0
  3  6  1  0
  6  7  2  0
  6  8  1  0
  8  9  2  0
  9 10  1  0
 10 11  2  0
 11 12  1  0
 12 13  2  0
 11 14  1  0
 14 15  2  3
 15 16  1  0
 16 17  1  0
 17 18  1  0
 18 19  1  0
 19 20  1  0
 14 21  1  0
 21 22  2  0
 22 23  1  0
 23 24  2  0
 24 25  1  0
 25 26  2  0
 25 27  1  0
 27 28  2  0
 27 29  1  0
 13  8  1  0
 20 15  1  0
 26 21  1  0
M  END
>  <pIC50>  (22) 
5.48

>  <ChEMBL_ID>  (22) 
CHEMBL129300

>  <document_journal>  (22) 
J. Med. Chem.

>  <bao_endpoint>  (22) 
BAO_0000190

>  <potential_duplicate>  (22) 
False

>  <uo_units>  (22) 
UO_0000065

>  <canonical_smiles>  (22) 
CCN(CC)C(=O)c1ccc(cc1)C(=C2CCNCC2)c3cccc(c3)C(=O)C

>  <parent_molecule_chembl_id>  (22) 
CHEMBL129300

>  <assay_type>  (22) 
B

>  <src_id>  (22) 
1

>  <ligand_efficiency>  (22) 
{u'le': u'0.26', u'bei': u'14.04', u'sei': u'11.1', u'lle': u'1.96'}

>  <standard_flag>  (22) 
True

>  <molecule_chembl_id>  (22) 
CHEMBL129300

>  <target_organism>  (22) 
Homo sapiens

>  <standard_units>  (22) 
nM

>  <record_id>  (22) 
243049

>  <document_chembl_id>  (22) 
CHEMBL1133469

>  <bao_format>  (22) 
BAO_0000219

>  <data_validity_description>  (22) 
None

>  <activity_id>  (22) 
68845

>  <standard_type>  (22) 
IC50

>  <target_chembl_id>  (22) 
CHEMBL233

>  <data_validity_comment>  (22) 
None

>  <published_value>  (22) 
3290

>  <document_year>  (22) 
2000

>  <target_pref_name>  (22) 
Mu opioid receptor

>  <assay_chembl_id>  (22) 
CHEMBL749749

>  <standard_relation>  (22) 
=

>  <assay_description>  (22) 
Binding affinity on cloned opioid receptor mu 1 in human HEK293S cells using [125I]FK33824 as radioligand.

>  <published_relation>  (22) 
=

>  <standard_value>  (22) 
3290

>  <qudt_units>  (22) 
http://www.openphacts.org/units/Nanomolar

>  <target_tax_id>  (22) 
9606

>  <bao_label>  (22) 
cell-based format

>  <published_units>  (22) 
nM

>  <pchembl_value>  (22) 
5.48

>  <published_type>  (22) 
IC50

>  <activity_comment>  (22) 
None

$$$$

     RDKit          

 27 29  0  0  0  0  0  0  0  0999 V2000
    0.0000    0.0000    0.0000 C   0  0  0  0  0  0  0  0  0  0  0  0
    0.0000    0.0000    0.0000 C   0  0  0  0  0  0  0  0  0  0  0  0
    0.0000    0.0000    0.0000 N   0  0  0  0  0  0  0  0  0  0  0  0
    0.0000    0.0000    0.0000 C   0  0  0  0  0  0  0  0  0  0  0  0
    0.0000    0.0000    0.0000 C   0  0  0  0  0  0  0  0  0  0  0  0
    0.0000    0.0000    0.0000 C   0  0  0  0  0  0  0  0  0  0  0  0
    0.0000    0.0000    0.0000 O   0  0  0  0  0  0  0  0  0  0  0  0
    0.0000    0.0000    0.0000 C   0  0  0  0  0  0  0  0  0  0  0  0
    0.0000    0.0000    0.0000 C   0  0  0  0  0  0  0  0  0  0  0  0
    0.0000    0.0000    0.0000 C   0  0  0  0  0  0  0  0  0  0  0  0
    0.0000    0.0000    0.0000 C   0  0  0  0  0  0  0  0  0  0  0  0
    0.0000    0.0000    0.0000 C   0  0  0  0  0  0  0  0  0  0  0  0
    0.0000    0.0000    0.0000 C   0  0  0  0  0  0  0  0  0  0  0  0
    0.0000    0.0000    0.0000 C   0  0  0  0  0  0  0  0  0  0  0  0
    0.0000    0.0000    0.0000 C   0  0  0  0  0  0  0  0  0  0  0  0
    0.0000    0.0000    0.0000 C   0  0  0  0  0  0  0  0  0  0  0  0
    0.0000    0.0000    0.0000 C   0  0  0  0  0  0  0  0  0  0  0  0
    0.0000    0.0000    0.0000 N   0  0  0  0  0  0  0  0  0  0  0  0
    0.0000    0.0000    0.0000 C   0  0  0  0  0  0  0  0  0  0  0  0
    0.0000    0.0000    0.0000 C   0  0  0  0  0  0  0  0  0  0  0  0
    0.0000    0.0000    0.0000 C   0  0  0  0  0  0  0  0  0  0  0  0
    0.0000    0.0000    0.0000 C   0  0  0  0  0  0  0  0  0  0  0  0
    0.0000    0.0000    0.0000 C   0  0  0  0  0  0  0  0  0  0  0  0
    0.0000    0.0000    0.0000 C   0  0  0  0  0  0  0  0  0  0  0  0
    0.0000    0.0000    0.0000 Cl  0  0  0  0  0  0  0  0  0  0  0  0
    0.0000    0.0000    0.0000 C   0  0  0  0  0  0  0  0  0  0  0  0
    0.0000    0.0000    0.0000 C   0  0  0  0  0  0  0  0  0  0  0  0
  1  2  1  0
  2  3  1  0
  3  4  1  0
  4  5  1  0
  3  6  1  0
  6  7  2  0
  6  8  1  0
  8  9  2  0
  9 10  1  0
 10 11  2  0
 11 12  1  0
 12 13  2  0
 11 14  1  0
 14 15  2  3
 15 16  1  0
 16 17  1  0
 17 18  1  0
 18 19  1  0
 19 20  1  0
 14 21  1  0
 21 22  2  0
 22 23  1  0
 23 24  2  0
 24 25  1  0
 24 26  1  0
 26 27  2  0
 13  8  1  0
 20 15  1  0
 27 21  1  0
M  END
>  <pIC50>  (23) 
5.3

>  <ChEMBL_ID>  (23) 
CHEMBL127007

>  <document_journal>  (23) 
J. Med. Chem.

>  <bao_endpoint>  (23) 
BAO_0000190

>  <potential_duplicate>  (23) 
False

>  <uo_units>  (23) 
UO_0000065

>  <canonical_smiles>  (23) 
CCN(CC)C(=O)c1ccc(cc1)C(=C2CCNCC2)c3ccc(Cl)cc3

>  <parent_molecule_chembl_id>  (23) 
CHEMBL127007

>  <assay_type>  (23) 
B

>  <src_id>  (23) 
1

>  <ligand_efficiency>  (23) 
{u'le': u'0.27', u'bei': u'13.83', u'sei': u'16.38', u'lle': u'0.85'}

>  <standard_flag>  (23) 
True

>  <molecule_chembl_id>  (23) 
CHEMBL127007

>  <target_organism>  (23) 
Homo sapiens

>  <standard_units>  (23) 
nM

>  <record_id>  (23) 
243056

>  <document_chembl_id>  (23) 
CHEMBL1133469

>  <bao_format>  (23) 
BAO_0000219

>  <data_validity_description>  (23) 
None

>  <activity_id>  (23) 
71409

>  <standard_type>  (23) 
IC50

>  <target_chembl_id>  (23) 
CHEMBL233

>  <data_validity_comment>  (23) 
None

>  <published_value>  (23) 
5050

>  <document_year>  (23) 
2000

>  <target_pref_name>  (23) 
Mu opioid receptor

>  <assay_chembl_id>  (23) 
CHEMBL749749

>  <standard_relation>  (23) 
=

>  <assay_description>  (23) 
Binding affinity on cloned opioid receptor mu 1 in human HEK293S cells using [125I]FK33824 as radioligand.

>  <published_relation>  (23) 
=

>  <standard_value>  (23) 
5050

>  <qudt_units>  (23) 
http://www.openphacts.org/units/Nanomolar

>  <target_tax_id>  (23) 
9606

>  <bao_label>  (23) 
cell-based format

>  <published_units>  (23) 
nM

>  <pchembl_value>  (23) 
5.3

>  <published_type>  (23) 
IC50

>  <activity_comment>  (23) 
None

$$$$

     RDKit          

 60 62  0  0  0  0  0  0  0  0999 V2000
    0.0000    0.0000    0.0000 C   0  0  0  0  0  0  0  0  0  0  0  0
    0.0000    0.0000    0.0000 C   0  0  0  0  0  0  0  0  0  0  0  0
    0.0000    0.0000    0.0000 C   0  0  0  0  0  0  0  0  0  0  0  0
    0.0000    0.0000    0.0000 C   0  0  0  0  0  0  0  0  0  0  0  0
    0.0000    0.0000    0.0000 C   0  0  0  0  0  0  0  0  0  0  0  0
    0.0000    0.0000    0.0000 N   0  0  0  0  0  0  0  0  0  0  0  0
    0.0000    0.0000    0.0000 C   0  0  0  0  0  0  0  0  0  0  0  0
    0.0000    0.0000    0.0000 O   0  0  0  0  0  0  0  0  0  0  0  0
    0.0000    0.0000    0.0000 C   0  0  0  0  0  0  0  0  0  0  0  0
    0.0000    0.0000    0.0000 C   0  0  0  0  0  0  0  0  0  0  0  0
    0.0000    0.0000    0.0000 C   0  0  0  0  0  0  0  0  0  0  0  0
    0.0000    0.0000    0.0000 C   0  0  0  0  0  0  0  0  0  0  0  0
    0.0000    0.0000    0.0000 C   0  0  0  0  0  0  0  0  0  0  0  0
    0.0000    0.0000    0.0000 C   0  0  0  0  0  0  0  0  0  0  0  0
    0.0000    0.0000    0.0000 C   0  0  0  0  0  0  0  0  0  0  0  0
    0.0000    0.0000    0.0000 C   0  0  0  0  0  0  0  0  0  0  0  0
    0.0000    0.0000    0.0000 N   0  0  0  0  0  0  0  0  0  0  0  0
    0.0000    0.0000    0.0000 C   0  0  0  0  0  0  0  0  0  0  0  0
    0.0000    0.0000    0.0000 O   0  0  0  0  0  0  0  0  0  0  0  0
    0.0000    0.0000    0.0000 C   0  0  0  0  0  0  0  0  0  0  0  0
    0.0000    0.0000    0.0000 N   0  0  0  0  0  0  0  0  0  0  0  0
    0.0000    0.0000    0.0000 C   0  0  0  0  0  0  0  0  0  0  0  0
    0.0000    0.0000    0.0000 O   0  0  0  0  0  0  0  0  0  0  0  0
    0.0000    0.0000    0.0000 C   0  0  0  0  0  0  0  0  0  0  0  0
    0.0000    0.0000    0.0000 N   0  0  0  0  0  0  0  0  0  0  0  0
    0.0000    0.0000    0.0000 C   0  0  0  0  0  0  0  0  0  0  0  0
    0.0000    0.0000    0.0000 O   0  0  0  0  0  0  0  0  0  0  0  0
    0.0000    0.0000    0.0000 C   0  0  0  0  0  0  0  0  0  0  0  0
    0.0000    0.0000    0.0000 N   0  0  0  0  0  0  0  0  0  0  0  0
    0.0000    0.0000    0.0000 C   0  0  0  0  0  0  0  0  0  0  0  0
    0.0000    0.0000    0.0000 C   0  0  0  0  0  0  0  0  0  0  0  0
    0.0000    0.0000    0.0000 C   0  0  0  0  0  0  0  0  0  0  0  0
    0.0000    0.0000    0.0000 C   0  0  0  0  0  0  0  0  0  0  0  0
    0.0000    0.0000    0.0000 C   0  0  0  0  0  0  0  0  0  0  0  0
    0.0000    0.0000    0.0000 O   0  0  0  0  0  0  0  0  0  0  0  0
    0.0000    0.0000    0.0000 C   0  0  0  0  0  0  0  0  0  0  0  0
    0.0000    0.0000    0.0000 C   0  0  0  0  0  0  0  0  0  0  0  0
    0.0000    0.0000    0.0000 C   0  0  0  0  0  0  0  0  0  0  0  0
    0.0000    0.0000    0.0000 C   0  0  0  0  0  0  0  0  0  0  0  0
    0.0000    0.0000    0.0000 O   0  0  0  0  0  0  0  0  0  0  0  0
    0.0000    0.0000    0.0000 C   0  0  0  0  0  0  0  0  0  0  0  0
    0.0000    0.0000    0.0000 O   0  0  0  0  0  0  0  0  0  0  0  0
    0.0000    0.0000    0.0000 N   0  0  0  0  0  0  0  0  0  0  0  0
    0.0000    0.0000    0.0000 C   0  0  0  0  0  0  0  0  0  0  0  0
    0.0000    0.0000    0.0000 C   0  0  0  0  0  0  0  0  0  0  0  0
    0.0000    0.0000    0.0000 O   0  0  0  0  0  0  0  0  0  0  0  0
    0.0000    0.0000    0.0000 C   0  0  0  0  0  0  0  0  0  0  0  0
    0.0000    0.0000    0.0000 O   0  0  0  0  0  0  0  0  0  0  0  0
    0.0000    0.0000    0.0000 C   0  0  0  0  0  0  0  0  0  0  0  0
    0.0000    0.0000    0.0000 C   0  0  0  0  0  0  0  0  0  0  0  0
    0.0000    0.0000    0.0000 O   0  0  0  0  0  0  0  0  0  0  0  0
    0.0000    0.0000    0.0000 C   0  0  0  0  0  0  0  0  0  0  0  0
    0.0000    0.0000    0.0000 O   0  0  0  0  0  0  0  0  0  0  0  0
    0.0000    0.0000    0.0000 C   0  0  0  0  0  0  0  0  0  0  0  0
    0.0000    0.0000    0.0000 O   0  0  0  0  0  0  0  0  0  0  0  0
    0.0000    0.0000    0.0000 C   0  0  0  0  0  0  0  0  0  0  0  0
    0.0000    0.0000    0.0000 O   0  0  0  0  0  0  0  0  0  0  0  0
    0.0000    0.0000    0.0000 C   0  0  0  0  0  0  0  0  0  0  0  0
    0.0000    0.0000    0.0000 O   0  0  0  0  0  0  0  0  0  0  0  0
    0.0000    0.0000    0.0000 N   0  0  0  0  0  0  0  0  0  0  0  0
  1  2  1  0
  2  3  1  0
  2  4  1  0
  4  5  1  0
  5  6  1  0
  6  7  1  0
  7  8  2  0
  7  9  1  0
  9 10  1  0
 10 11  1  0
 11 12  2  0
 12 13  1  0
 13 14  2  0
 14 15  1  0
 15 16  2  0
  9 17  1  0
 17 18  1  0
 18 19  2  0
 18 20  1  0
 20 21  1  0
 21 22  1  0
 22 23  2  0
 22 24  1  0
 24 25  1  0
 25 26  1  0
 26 27  2  0
 26 28  1  0
 28 29  1  0
 28 30  1  0
 30 31  1  0
 31 32  2  0
 32 33  1  0
 33 34  2  0
 34 35  1  0
 34 36  1  0
 36 37  2  0
 24 38  1  0
 38 39  1  0
 38 40  1  0
  5 41  1  0
 41 42  2  0
 41 43  1  0
 43 44  1  0
 44 45  1  0
 45 46  1  0
 46 47  1  0
 47 48  1  0
 48 49  1  0
 49 50  1  0
 50 51  1  0
 49 52  1  0
 52 53  1  0
 52 54  1  0
 54 55  1  0
 54 56  1  0
 56 57  1  0
 44 58  1  0
 58 59  2  0
 58 60  1  0
 16 11  1  0
 37 31  1  0
 56 47  1  0
M  END
>  <pIC50>  (24) 
8.09

>  <ChEMBL_ID>  (24) 
CHEMBL1790709

>  <document_journal>  (24) 
J. Med. Chem.

>  <bao_endpoint>  (24) 
BAO_0000190

>  <potential_duplicate>  (24) 
False

>  <uo_units>  (24) 
UO_0000065

>  <canonical_smiles>  (24) 
CC(C)C[C@H](NC(=O)[C@H](Cc1ccccc1)NC(=O)CNC(=O)[C@H](NC(=O)[C@@H](N)Cc2ccc(O)cc2)[C@@H](C)O)C(=O)N[C@@H](CO[C@H]3O[C@@H](CO)[C@H](O)[C@@H](O)[C@H]3O)C(=O)N

>  <parent_molecule_chembl_id>  (24) 
CHEMBL1790709

>  <assay_type>  (24) 
B

>  <src_id>  (24) 
1

>  <ligand_efficiency>  (24) 
{u'le': u'0.18', u'bei': u'9.54', u'sei': u'2.28', u'lle': u'11.21'}

>  <standard_flag>  (24) 
True

>  <molecule_chembl_id>  (24) 
CHEMBL1790709

>  <target_organism>  (24) 
Homo sapiens

>  <standard_units>  (24) 
nM

>  <record_id>  (24) 
157765

>  <document_chembl_id>  (24) 
CHEMBL1133766

>  <bao_format>  (24) 
BAO_0000357

>  <data_validity_description>  (24) 
None

>  <activity_id>  (24) 
84594

>  <standard_type>  (24) 
IC50

>  <target_chembl_id>  (24) 
CHEMBL233

>  <data_validity_comment>  (24) 
None

>  <published_value>  (24) 
8.2

>  <document_year>  (24) 
2000

>  <target_pref_name>  (24) 
Mu opioid receptor

>  <assay_chembl_id>  (24) 
CHEMBL757306

>  <standard_relation>  (24) 
=

>  <assay_description>  (24) 
Binding affinity towards Opioid receptor mu 1 was evaluated

>  <published_relation>  (24) 
=

>  <standard_value>  (24) 
8.2

>  <qudt_units>  (24) 
http://www.openphacts.org/units/Nanomolar

>  <target_tax_id>  (24) 
9606

>  <bao_label>  (24) 
single protein format

>  <published_units>  (24) 
nM

>  <pchembl_value>  (24) 
8.09

>  <published_type>  (24) 
IC50

>  <activity_comment>  (24) 
None

$$$$

     RDKit          

 49 50  0  0  0  0  0  0  0  0999 V2000
    0.0000    0.0000    0.0000 C   0  0  0  0  0  0  0  0  0  0  0  0
    0.0000    0.0000    0.0000 C   0  0  0  0  0  0  0  0  0  0  0  0
    0.0000    0.0000    0.0000 C   0  0  0  0  0  0  0  0  0  0  0  0
    0.0000    0.0000    0.0000 C   0  0  0  0  0  0  0  0  0  0  0  0
    0.0000    0.0000    0.0000 C   0  0  0  0  0  0  0  0  0  0  0  0
    0.0000    0.0000    0.0000 N   0  0  0  0  0  0  0  0  0  0  0  0
    0.0000    0.0000    0.0000 C   0  0  0  0  0  0  0  0  0  0  0  0
    0.0000    0.0000    0.0000 O   0  0  0  0  0  0  0  0  0  0  0  0
    0.0000    0.0000    0.0000 C   0  0  0  0  0  0  0  0  0  0  0  0
    0.0000    0.0000    0.0000 C   0  0  0  0  0  0  0  0  0  0  0  0
    0.0000    0.0000    0.0000 C   0  0  0  0  0  0  0  0  0  0  0  0
    0.0000    0.0000    0.0000 C   0  0  0  0  0  0  0  0  0  0  0  0
    0.0000    0.0000    0.0000 C   0  0  0  0  0  0  0  0  0  0  0  0
    0.0000    0.0000    0.0000 C   0  0  0  0  0  0  0  0  0  0  0  0
    0.0000    0.0000    0.0000 C   0  0  0  0  0  0  0  0  0  0  0  0
    0.0000    0.0000    0.0000 C   0  0  0  0  0  0  0  0  0  0  0  0
    0.0000    0.0000    0.0000 N   0  0  0  0  0  0  0  0  0  0  0  0
    0.0000    0.0000    0.0000 C   0  0  0  0  0  0  0  0  0  0  0  0
    0.0000    0.0000    0.0000 O   0  0  0  0  0  0  0  0  0  0  0  0
    0.0000    0.0000    0.0000 C   0  0  0  0  0  0  0  0  0  0  0  0
    0.0000    0.0000    0.0000 N   0  0  0  0  0  0  0  0  0  0  0  0
    0.0000    0.0000    0.0000 C   0  0  0  0  0  0  0  0  0  0  0  0
    0.0000    0.0000    0.0000 O   0  0  0  0  0  0  0  0  0  0  0  0
    0.0000    0.0000    0.0000 C   0  0  0  0  0  0  0  0  0  0  0  0
    0.0000    0.0000    0.0000 N   0  0  0  0  0  0  0  0  0  0  0  0
    0.0000    0.0000    0.0000 C   0  0  0  0  0  0  0  0  0  0  0  0
    0.0000    0.0000    0.0000 O   0  0  0  0  0  0  0  0  0  0  0  0
    0.0000    0.0000    0.0000 C   0  0  0  0  0  0  0  0  0  0  0  0
    0.0000    0.0000    0.0000 N   0  0  0  0  0  0  0  0  0  0  0  0
    0.0000    0.0000    0.0000 C   0  0  0  0  0  0  0  0  0  0  0  0
    0.0000    0.0000    0.0000 C   0  0  0  0  0  0  0  0  0  0  0  0
    0.0000    0.0000    0.0000 C   0  0  0  0  0  0  0  0  0  0  0  0
    0.0000    0.0000    0.0000 C   0  0  0  0  0  0  0  0  0  0  0  0
    0.0000    0.0000    0.0000 C   0  0  0  0  0  0  0  0  0  0  0  0
    0.0000    0.0000    0.0000 O   0  0  0  0  0  0  0  0  0  0  0  0
    0.0000    0.0000    0.0000 C   0  0  0  0  0  0  0  0  0  0  0  0
    0.0000    0.0000    0.0000 C   0  0  0  0  0  0  0  0  0  0  0  0
    0.0000    0.0000    0.0000 C   0  0  0  0  0  0  0  0  0  0  0  0
    0.0000    0.0000    0.0000 C   0  0  0  0  0  0  0  0  0  0  0  0
    0.0000    0.0000    0.0000 O   0  0  0  0  0  0  0  0  0  0  0  0
    0.0000    0.0000    0.0000 C   0  0  0  0  0  0  0  0  0  0  0  0
    0.0000    0.0000    0.0000 O   0  0  0  0  0  0  0  0  0  0  0  0
    0.0000    0.0000    0.0000 N   0  0  0  0  0  0  0  0  0  0  0  0
    0.0000    0.0000    0.0000 C   0  0  0  0  0  0  0  0  0  0  0  0
    0.0000    0.0000    0.0000 C   0  0  0  0  0  0  0  0  0  0  0  0
    0.0000    0.0000    0.0000 O   0  0  0  0  0  0  0  0  0  0  0  0
    0.0000    0.0000    0.0000 C   0  0  0  0  0  0  0  0  0  0  0  0
    0.0000    0.0000    0.0000 O   0  0  0  0  0  0  0  0  0  0  0  0
    0.0000    0.0000    0.0000 N   0  0  0  0  0  0  0  0  0  0  0  0
  1  2  1  0
  2  3  1  0
  2  4  1  0
  4  5  1  0
  5  6  1  0
  6  7  1  0
  7  8  2  0
  7  9  1  0
  9 10  1  0
 10 11  1  0
 11 12  2  0
 12 13  1  0
 13 14  2  0
 14 15  1  0
 15 16  2  0
  9 17  1  0
 17 18  1  0
 18 19  2  0
 18 20  1  0
 20 21  1  0
 21 22  1  0
 22 23  2  0
 22 24  1  0
 24 25  1  0
 25 26  1  0
 26 27  2  0
 26 28  1  0
 28 29  1  0
 28 30  1  0
 30 31  1  0
 31 32  2  0
 32 33  1  0
 33 34  2  0
 34 35  1  0
 34 36  1  0
 36 37  2  0
 24 38  1  0
 38 39  1  0
 38 40  1  0
  5 41  1  0
 41 42  2  0
 41 43  1  0
 43 44  1  0
 44 45  1  0
 45 46  1  0
 44 47  1  0
 47 48  2  0
 47 49  1  0
 16 11  1  0
 37 31  1  0
M  END
>  <pIC50>  (25) 
8.4

>  <ChEMBL_ID>  (25) 
CHEMBL1790710

>  <document_journal>  (25) 
J. Med. Chem.

>  <bao_endpoint>  (25) 
BAO_0000190

>  <potential_duplicate>  (25) 
False

>  <uo_units>  (25) 
UO_0000065

>  <canonical_smiles>  (25) 
CC(C)C[C@H](NC(=O)[C@H](Cc1ccccc1)NC(=O)CNC(=O)[C@H](NC(=O)[C@@H](N)Cc2ccc(O)cc2)[C@@H](C)O)C(=O)N[C@@H](CO)C(=O)N

>  <parent_molecule_chembl_id>  (25) 
CHEMBL1790710

>  <assay_type>  (25) 
B

>  <src_id>  (25) 
1

>  <ligand_efficiency>  (25) 
{u'le': u'0.23', u'bei': u'12.25', u'sei': u'3.05', u'lle': u'9.77'}

>  <standard_flag>  (25) 
True

>  <molecule_chembl_id>  (25) 
CHEMBL1790710

>  <target_organism>  (25) 
Homo sapiens

>  <standard_units>  (25) 
nM

>  <record_id>  (25) 
157766

>  <document_chembl_id>  (25) 
CHEMBL1133766

>  <bao_format>  (25) 
BAO_0000357

>  <data_validity_description>  (25) 
None

>  <activity_id>  (25) 
92593

>  <standard_type>  (25) 
IC50

>  <target_chembl_id>  (25) 
CHEMBL233

>  <data_validity_comment>  (25) 
None

>  <published_value>  (25) 
4

>  <document_year>  (25) 
2000

>  <target_pref_name>  (25) 
Mu opioid receptor

>  <assay_chembl_id>  (25) 
CHEMBL757306

>  <standard_relation>  (25) 
=

>  <assay_description>  (25) 
Binding affinity towards Opioid receptor mu 1 was evaluated

>  <published_relation>  (25) 
=

>  <standard_value>  (25) 
4

>  <qudt_units>  (25) 
http://www.openphacts.org/units/Nanomolar

>  <target_tax_id>  (25) 
9606

>  <bao_label>  (25) 
single protein format

>  <published_units>  (25) 
nM

>  <pchembl_value>  (25) 
8.4

>  <published_type>  (25) 
IC50

>  <activity_comment>  (25) 
None

$$$$

     RDKit          

 58 61  0  0  0  0  0  0  0  0999 V2000
    0.0000    0.0000    0.0000 C   0  0  0  0  0  0  0  0  0  0  0  0
    0.0000    0.0000    0.0000 C   0  0  0  0  0  0  0  0  0  0  0  0
    0.0000    0.0000    0.0000 N   0  0  0  0  0  0  0  0  0  0  0  0
    0.0000    0.0000    0.0000 C   0  0  0  0  0  0  0  0  0  0  0  0
    0.0000    0.0000    0.0000 O   0  0  0  0  0  0  0  0  0  0  0  0
    0.0000    0.0000    0.0000 C   0  0  0  0  0  0  0  0  0  0  0  0
    0.0000    0.0000    0.0000 N   0  0  0  0  0  0  0  0  0  0  0  0
    0.0000    0.0000    0.0000 C   0  0  0  0  0  0  0  0  0  0  0  0
    0.0000    0.0000    0.0000 C   0  0  0  0  0  0  0  0  0  0  0  0
    0.0000    0.0000    0.0000 C   0  0  0  0  0  0  0  0  0  0  0  0
    0.0000    0.0000    0.0000 C   0  0  0  0  0  0  0  0  0  0  0  0
    0.0000    0.0000    0.0000 C   0  0  0  0  0  0  0  0  0  0  0  0
    0.0000    0.0000    0.0000 O   0  0  0  0  0  0  0  0  0  0  0  0
    0.0000    0.0000    0.0000 C   0  0  0  0  0  0  0  0  0  0  0  0
    0.0000    0.0000    0.0000 C   0  0  0  0  0  0  0  0  0  0  0  0
    0.0000    0.0000    0.0000 C   0  0  0  0  0  0  0  0  0  0  0  0
    0.0000    0.0000    0.0000 O   0  0  0  0  0  0  0  0  0  0  0  0
    0.0000    0.0000    0.0000 N   0  0  0  0  0  0  0  0  0  0  0  0
    0.0000    0.0000    0.0000 C   0  0  0  0  0  0  0  0  0  0  0  0
    0.0000    0.0000    0.0000 C   0  0  0  0  0  0  0  0  0  0  0  0
    0.0000    0.0000    0.0000 C   0  0  0  0  0  0  0  0  0  0  0  0
    0.0000    0.0000    0.0000 C   0  0  0  0  0  0  0  0  0  0  0  0
    0.0000    0.0000    0.0000 C   0  0  0  0  0  0  0  0  0  0  0  0
    0.0000    0.0000    0.0000 C   0  0  0  0  0  0  0  0  0  0  0  0
    0.0000    0.0000    0.0000 C   0  0  0  0  0  0  0  0  0  0  0  0
    0.0000    0.0000    0.0000 C   0  0  0  0  0  0  0  0  0  0  0  0
    0.0000    0.0000    0.0000 C   0  0  0  0  0  0  0  0  0  0  0  0
    0.0000    0.0000    0.0000 O   0  0  0  0  0  0  0  0  0  0  0  0
    0.0000    0.0000    0.0000 N   0  0  0  0  0  0  0  0  0  0  0  0
    0.0000    0.0000    0.0000 C   0  0  0  0  0  0  0  0  0  0  0  0
    0.0000    0.0000    0.0000 C   0  0  0  0  0  0  0  0  0  0  0  0
    0.0000    0.0000    0.0000 O   0  0  0  0  0  0  0  0  0  0  0  0
    0.0000    0.0000    0.0000 N   0  0  0  0  0  0  0  0  0  0  0  0
    0.0000    0.0000    0.0000 C   0  0  0  0  0  0  0  0  0  0  0  0
    0.0000    0.0000    0.0000 C   0  0  0  0  0  0  0  0  0  0  0  0
    0.0000    0.0000    0.0000 C   0  0  0  0  0  0  0  0  0  0  0  0
    0.0000    0.0000    0.0000 C   0  0  0  0  0  0  0  0  0  0  0  0
    0.0000    0.0000    0.0000 C   0  0  0  0  0  0  0  0  0  0  0  0
    0.0000    0.0000    0.0000 C   0  0  0  0  0  0  0  0  0  0  0  0
    0.0000    0.0000    0.0000 O   0  0  0  0  0  0  0  0  0  0  0  0
    0.0000    0.0000    0.0000 C   0  0  0  0  0  0  0  0  0  0  0  0
    0.0000    0.0000    0.0000 C   0  0  0  0  0  0  0  0  0  0  0  0
    0.0000    0.0000    0.0000 C   0  0  0  0  0  0  0  0  0  0  0  0
    0.0000    0.0000    0.0000 O   0  0  0  0  0  0  0  0  0  0  0  0
    0.0000    0.0000    0.0000 N   0  0  0  0  0  0  0  0  0  0  0  0
    0.0000    0.0000    0.0000 C   0  0  0  0  0  0  0  0  0  0  0  0
    0.0000    0.0000    0.0000 C   0  0  0  0  0  0  0  0  0  0  0  0
    0.0000    0.0000    0.0000 C   0  0  0  0  0  0  0  0  0  0  0  0
    0.0000    0.0000    0.0000 C   0  0  0  0  0  0  0  0  0  0  0  0
    0.0000    0.0000    0.0000 C   0  0  0  0  0  0  0  0  0  0  0  0
    0.0000    0.0000    0.0000 O   0  0  0  0  0  0  0  0  0  0  0  0
    0.0000    0.0000    0.0000 N   0  0  0  0  0  0  0  0  0  0  0  0
    0.0000    0.0000    0.0000 C   0  0  0  0  0  0  0  0  0  0  0  0
    0.0000    0.0000    0.0000 C   0  0  0  0  0  0  0  0  0  0  0  0
    0.0000    0.0000    0.0000 O   0  0  0  0  0  0  0  0  0  0  0  0
    0.0000    0.0000    0.0000 C   0  0  0  0  0  0  0  0  0  0  0  0
    0.0000    0.0000    0.0000 O   0  0  0  0  0  0  0  0  0  0  0  0
    0.0000    0.0000    0.0000 N   0  0  0  0  0  0  0  0  0  0  0  0
  1  2  1  0
  2  3  1  0
  3  4  1  0
  4  5  2  0
  4  6  1  0
  6  7  1  0
  6  8  1  0
  8  9  1  0
  9 10  2  0
 10 11  1  0
 11 12  2  0
 12 13  1  0
 12 14  1  0
 14 15  2  0
  2 16  1  0
 16 17  2  0
 16 18  1  0
 18 19  1  0
 19 20  1  0
 20 21  1  0
 21 22  2  0
 22 23  1  0
 23 24  2  0
 24 25  1  0
 25 26  2  0
 19 27  1  0
 27 28  2  0
 27 29  1  0
 29 30  1  0
 30 31  1  0
 31 32  2  0
 31 33  1  0
 33 34  1  0
 34 35  1  0
 35 36  1  0
 36 37  2  0
 37 38  1  0
 38 39  2  0
 39 40  1  0
 39 41  1  0
 41 42  2  0
 34 43  1  0
 43 44  2  0
 43 45  1  0
 45 46  1  0
 46 47  1  0
 47 48  1  0
 48 49  1  0
 49 50  1  0
 50 51  2  0
 50 52  1  0
 52 53  1  0
 53 54  1  0
 54 55  1  0
 53 56  1  0
 56 57  2  0
 56 58  1  0
 15  9  1  0
 26 21  1  0
 42 36  1  0
 49 45  1  0
M  END
>  <pIC50>  (26) 
8.83333333333

>  <ChEMBL_ID>  (26) 
CHEMBL278789

>  <document_journal>  (26) 
J. Med. Chem.

>  <bao_endpoint>  (26) 
BAO_0000190

>  <potential_duplicate>  (26) 
False

>  <uo_units>  (26) 
UO_0000065

>  <canonical_smiles>  (26) 
C[C@@H](NC(=O)[C@@H](N)Cc1ccc(O)cc1)C(=O)N[C@@H](Cc2ccccc2)C(=O)NCC(=O)N[C@@H](Cc3ccc(O)cc3)C(=O)N4CCC[C@H]4C(=O)N[C@@H](CO)C(=O)N

>  <parent_molecule_chembl_id>  (26) 
CHEMBL278789

>  <assay_type>  (26) 
F

>  <src_id>  (26) 
1

>  <ligand_efficiency>  (26) 
None

>  <standard_flag>  (26) 
True

>  <molecule_chembl_id>  (26) 
CHEMBL278789

>  <target_organism>  (26) 
Homo sapiens

>  <standard_units>  (26) 
nM

>  <record_id>  (26) 
197152

>  <document_chembl_id>  (26) 
CHEMBL1130156

>  <bao_format>  (26) 
BAO_0000019

>  <data_validity_description>  (26) 
None

>  <activity_id>  (26) 
103860

>  <standard_type>  (26) 
IC50

>  <target_chembl_id>  (26) 
CHEMBL233

>  <data_validity_comment>  (26) 
None

>  <published_value>  (26) 
1.82

>  <document_year>  (26) 
1997

>  <target_pref_name>  (26) 
Mu opioid receptor

>  <assay_chembl_id>  (26) 
CHEMBL756438

>  <standard_relation>  (26) 
=

>  <assay_description>  (26) 
Agonist activity for Opioid receptor mu 1

>  <published_relation>  (26) 
=

>  <standard_value>  (26) 
1.82

>  <qudt_units>  (26) 
http://www.openphacts.org/units/Nanomolar

>  <target_tax_id>  (26) 
9606

>  <bao_label>  (26) 
assay format

>  <published_units>  (26) 
nM

>  <pchembl_value>  (26) 
8.74

>  <published_type>  (26) 
IC50

>  <activity_comment>  (26) 
None

$$$$

     RDKit          

 24 28  0  0  0  0  0  0  0  0999 V2000
    0.0000    0.0000    0.0000 O   0  0  0  0  0  0  0  0  0  0  0  0
    0.0000    0.0000    0.0000 C   0  0  0  0  0  0  0  0  0  0  0  0
    0.0000    0.0000    0.0000 C   0  0  0  0  0  0  0  0  0  0  0  0
    0.0000    0.0000    0.0000 C   0  0  0  0  0  0  0  0  0  0  0  0
    0.0000    0.0000    0.0000 C   0  0  0  0  0  0  0  0  0  0  0  0
    0.0000    0.0000    0.0000 C   0  0  0  0  0  0  0  0  0  0  0  0
    0.0000    0.0000    0.0000 C   0  0  0  0  0  0  0  0  0  0  0  0
    0.0000    0.0000    0.0000 N   0  0  0  0  0  0  0  0  0  0  0  0
    0.0000    0.0000    0.0000 C   0  0  0  0  0  0  0  0  0  0  0  0
    0.0000    0.0000    0.0000 C   0  0  0  0  0  0  0  0  0  0  0  0
    0.0000    0.0000    0.0000 C   0  0  0  0  0  0  0  0  0  0  0  0
    0.0000    0.0000    0.0000 C   0  0  0  0  0  0  0  0  0  0  0  0
    0.0000    0.0000    0.0000 C   0  0  0  0  0  0  0  0  0  0  0  0
    0.0000    0.0000    0.0000 C   0  0  0  0  0  0  0  0  0  0  0  0
    0.0000    0.0000    0.0000 C   0  0  0  0  0  0  0  0  0  0  0  0
    0.0000    0.0000    0.0000 O   0  0  0  0  0  0  0  0  0  0  0  0
    0.0000    0.0000    0.0000 C   0  0  0  0  0  0  0  0  0  0  0  0
    0.0000    0.0000    0.0000 C   0  0  0  0  0  0  0  0  0  0  0  0
    0.0000    0.0000    0.0000 C   0  0  0  0  0  0  0  0  0  0  0  0
    0.0000    0.0000    0.0000 O   0  0  0  0  0  0  0  0  0  0  0  0
    0.0000    0.0000    0.0000 C   0  0  0  0  0  0  0  0  0  0  0  0
    0.0000    0.0000    0.0000 C   0  0  0  0  0  0  0  0  0  0  0  0
    0.0000    0.0000    0.0000 C   0  0  0  0  0  0  0  0  0  0  0  0
    0.0000    0.0000    0.0000 O   0  0  0  0  0  0  0  0  0  0  0  0
  1  2  1  0
  2  3  2  0
  3  4  1  0
  4  5  2  0
  5  6  1  0
  6  7  1  0
  7  8  1  0
  8  9  1  0
  9 10  1  0
 10 11  2  0
  8 12  1  0
 12 13  1  0
 13 14  1  0
 14 15  1  0
 15 16  1  0
 16 17  1  0
 17 18  2  0
 15 19  1  0
 19 20  2  0
 19 21  1  0
 21 22  1  0
 22 23  1  0
 23 24  1  0
 17  2  1  0
 18  5  1  0
 23  7  1  0
 18 14  1  0
 23 14  1  0
M  END
>  <pIC50>  (27) 
8.16625

>  <ChEMBL_ID>  (27) 
CHEMBL80

>  <document_journal>  (27) 
J. Med. Chem.

>  <bao_endpoint>  (27) 
BAO_0000190

>  <potential_duplicate>  (27) 
False

>  <uo_units>  (27) 
UO_0000065

>  <canonical_smiles>  (27) 
Oc1ccc2C[C@H]3N(CC=C)CC[C@@]45[C@@H](Oc1c24)C(=O)CC[C@@]35O

>  <parent_molecule_chembl_id>  (27) 
CHEMBL80

>  <assay_type>  (27) 
B

>  <src_id>  (27) 
1

>  <ligand_efficiency>  (27) 
{u'le': u'0.5', u'bei': u'26.57', u'sei': u'12.43', u'lle': u'7.25'}

>  <standard_flag>  (27) 
True

>  <molecule_chembl_id>  (27) 
CHEMBL80

>  <target_organism>  (27) 
Homo sapiens

>  <standard_units>  (27) 
nM

>  <record_id>  (27) 
215771

>  <document_chembl_id>  (27) 
CHEMBL1134447

>  <bao_format>  (27) 
BAO_0000357

>  <data_validity_description>  (27) 
None

>  <activity_id>  (27) 
105735

>  <standard_type>  (27) 
IC50

>  <target_chembl_id>  (27) 
CHEMBL233

>  <data_validity_comment>  (27) 
None

>  <published_value>  (27) 
2

>  <document_year>  (27) 
2001

>  <target_pref_name>  (27) 
Mu opioid receptor

>  <assay_chembl_id>  (27) 
CHEMBL757060

>  <standard_relation>  (27) 
=

>  <assay_description>  (27) 
Binding affinity against mu-opiate receptor (human) using [3H]DAMGO radioligand

>  <published_relation>  (27) 
=

>  <standard_value>  (27) 
2

>  <qudt_units>  (27) 
http://www.openphacts.org/units/Nanomolar

>  <target_tax_id>  (27) 
9606

>  <bao_label>  (27) 
single protein format

>  <published_units>  (27) 
nM

>  <pchembl_value>  (27) 
8.7

>  <published_type>  (27) 
IC50

>  <activity_comment>  (27) 
None

$$$$

     RDKit          

 33 36  0  0  0  0  0  0  0  0999 V2000
    0.0000    0.0000    0.0000 O   0  0  0  0  0  0  0  0  0  0  0  0
    0.0000    0.0000    0.0000 C   0  0  0  0  0  0  0  0  0  0  0  0
    0.0000    0.0000    0.0000 N   0  0  0  0  0  0  0  0  0  0  0  0
    0.0000    0.0000    0.0000 N   0  0  0  0  0  0  0  0  0  0  0  0
    0.0000    0.0000    0.0000 C   0  0  0  0  0  0  0  0  0  0  0  0
    0.0000    0.0000    0.0000 C   0  0  0  0  0  0  0  0  0  0  0  0
    0.0000    0.0000    0.0000 C   0  0  0  0  0  0  0  0  0  0  0  0
    0.0000    0.0000    0.0000 C   0  0  0  0  0  0  0  0  0  0  0  0
    0.0000    0.0000    0.0000 C   0  0  0  0  0  0  0  0  0  0  0  0
    0.0000    0.0000    0.0000 C   0  0  0  0  0  0  0  0  0  0  0  0
    0.0000    0.0000    0.0000 C   0  0  0  0  0  0  0  0  0  0  0  0
    0.0000    0.0000    0.0000 C   0  0  0  0  0  0  0  0  0  0  0  0
    0.0000    0.0000    0.0000 C   0  0  0  0  0  0  0  0  0  0  0  0
    0.0000    0.0000    0.0000 C   0  0  0  0  0  0  0  0  0  0  0  0
    0.0000    0.0000    0.0000 N   0  0  0  0  0  0  0  0  0  0  0  0
    0.0000    0.0000    0.0000 C   0  0  0  0  0  0  0  0  0  0  0  0
    0.0000    0.0000    0.0000 C   0  0  0  0  0  0  0  0  0  0  0  0
    0.0000    0.0000    0.0000 C   0  0  0  0  0  0  0  0  0  0  0  0
    0.0000    0.0000    0.0000 O   0  0  0  0  0  0  0  0  0  0  0  0
    0.0000    0.0000    0.0000 C   0  0  0  0  0  0  0  0  0  0  0  0
    0.0000    0.0000    0.0000 C   0  0  0  0  0  0  0  0  0  0  0  0
    0.0000    0.0000    0.0000 C   0  0  0  0  0  0  0  0  0  0  0  0
    0.0000    0.0000    0.0000 C   0  0  0  0  0  0  0  0  0  0  0  0
    0.0000    0.0000    0.0000 C   0  0  0  0  0  0  0  0  0  0  0  0
    0.0000    0.0000    0.0000 C   0  0  0  0  0  0  0  0  0  0  0  0
    0.0000    0.0000    0.0000 N   0  0  0  0  0  0  0  0  0  0  0  0
    0.0000    0.0000    0.0000 O   0  0  0  0  0  0  0  0  0  0  0  0
    0.0000    0.0000    0.0000 C   0  0  0  0  0  0  0  0  0  0  0  0
    0.0000    0.0000    0.0000 O   0  0  0  0  0  0  0  0  0  0  0  0
    0.0000    0.0000    0.0000 O   0  0  0  0  0  0  0  0  0  0  0  0
    0.0000    0.0000    0.0000 C   0  0  0  0  0  0  0  0  0  0  0  0
    0.0000    0.0000    0.0000 O   0  0  0  0  0  0  0  0  0  0  0  0
    0.0000    0.0000    0.0000 C   0  0  0  0  0  0  0  0  0  0  0  0
  1  2  2  0
  2  3  1  0
  4  2  1  0
  5  4  1  0
  6  4  1  0
  7  5  1  0
  5  8  1  0
  9  6  1  0
  6 10  2  0
 11  7  1  0
  8 12  1  0
 13  9  2  0
  3 10  1  0
 10 14  1  0
 15 11  1  0
 12 15  1  0
 16 13  1  0
 14 16  2  0
 17 15  1  0
 18 17  1  0
 17 19  2  0
 20 18  2  0
 21 20  1  0
 22 21  2  0
 21 23  1  0
 24 22  1  0
 23 25  2  0
 23 26  1  0
 27 24  1  0
 28 24  2  0
 25 28  1  0
 26 29  2  0
 26 30  1  0
 31 27  1  0
 28 32  1  0
 32 33  1  0
M  CHG  2  26   1  30  -1
M  END
>  <pIC50>  (28) 
6.02

>  <ChEMBL_ID>  (28) 
CHEMBL332697

>  <document_journal>  (28) 
J. Med. Chem.

>  <bao_endpoint>  (28) 
BAO_0000190

>  <potential_duplicate>  (28) 
True

>  <uo_units>  (28) 
UO_0000065

>  <canonical_smiles>  (28) 
COc1cc(\C=C\C(=O)N2CCC(CC2)n3c(O)nc4ccccc34)c(cc1OC)[N+](=O)[O-]

>  <parent_molecule_chembl_id>  (28) 
CHEMBL332697

>  <assay_type>  (28) 
B

>  <src_id>  (28) 
1

>  <ligand_efficiency>  (28) 
{u'le': u'0.25', u'bei': u'13.3', u'sei': u'4.91', u'lle': u'2.8'}

>  <standard_flag>  (28) 
True

>  <molecule_chembl_id>  (28) 
CHEMBL332697

>  <target_organism>  (28) 
Homo sapiens

>  <standard_units>  (28) 
nM

>  <record_id>  (28) 
215744

>  <document_chembl_id>  (28) 
CHEMBL1134447

>  <bao_format>  (28) 
BAO_0000357

>  <data_validity_description>  (28) 
None

>  <activity_id>  (28) 
107970

>  <standard_type>  (28) 
IC50

>  <target_chembl_id>  (28) 
CHEMBL233

>  <data_validity_comment>  (28) 
None

>  <published_value>  (28) 
960

>  <document_year>  (28) 
2001

>  <target_pref_name>  (28) 
Mu opioid receptor

>  <assay_chembl_id>  (28) 
CHEMBL757060

>  <standard_relation>  (28) 
=

>  <assay_description>  (28) 
Binding affinity against mu-opiate receptor (human) using [3H]DAMGO radioligand

>  <published_relation>  (28) 
=

>  <standard_value>  (28) 
960

>  <qudt_units>  (28) 
http://www.openphacts.org/units/Nanomolar

>  <target_tax_id>  (28) 
9606

>  <bao_label>  (28) 
single protein format

>  <published_units>  (28) 
nM

>  <pchembl_value>  (28) 
6.02

>  <published_type>  (28) 
IC50

>  <activity_comment>  (28) 
None

$$$$

     RDKit          

 29 33  0  0  0  0  0  0  0  0999 V2000
    0.0000    0.0000    0.0000 O   0  0  0  0  0  0  0  0  0  0  0  0
    0.0000    0.0000    0.0000 C   0  0  0  0  0  0  0  0  0  0  0  0
    0.0000    0.0000    0.0000 N   0  0  0  0  0  0  0  0  0  0  0  0
    0.0000    0.0000    0.0000 N   0  0  0  0  0  0  0  0  0  0  0  0
    0.0000    0.0000    0.0000 C   0  0  0  0  0  0  0  0  0  0  0  0
    0.0000    0.0000    0.0000 C   0  0  0  0  0  0  0  0  0  0  0  0
    0.0000    0.0000    0.0000 C   0  0  0  0  0  0  0  0  0  0  0  0
    0.0000    0.0000    0.0000 C   0  0  0  0  0  0  0  0  0  0  0  0
    0.0000    0.0000    0.0000 C   0  0  0  0  0  0  0  0  0  0  0  0
    0.0000    0.0000    0.0000 C   0  0  0  0  0  0  0  0  0  0  0  0
    0.0000    0.0000    0.0000 C   0  0  0  0  0  0  0  0  0  0  0  0
    0.0000    0.0000    0.0000 C   0  0  0  0  0  0  0  0  0  0  0  0
    0.0000    0.0000    0.0000 C   0  0  0  0  0  0  0  0  0  0  0  0
    0.0000    0.0000    0.0000 C   0  0  0  0  0  0  0  0  0  0  0  0
    0.0000    0.0000    0.0000 C   0  0  0  0  0  0  0  0  0  0  0  0
    0.0000    0.0000    0.0000 N   0  0  0  0  0  0  0  0  0  0  0  0
    0.0000    0.0000    0.0000 C   0  0  0  0  0  0  0  0  0  0  0  0
    0.0000    0.0000    0.0000 C   0  0  0  0  0  0  0  0  0  0  0  0
    0.0000    0.0000    0.0000 C   0  0  0  0  0  0  0  0  0  0  0  0
    0.0000    0.0000    0.0000 C   0  0  0  0  0  0  0  0  0  0  0  0
    0.0000    0.0000    0.0000 C   0  0  0  0  0  0  0  0  0  0  0  0
    0.0000    0.0000    0.0000 C   0  0  0  0  0  0  0  0  0  0  0  0
    0.0000    0.0000    0.0000 N   0  0  0  0  0  0  0  0  0  0  0  0
    0.0000    0.0000    0.0000 O   0  0  0  0  0  0  0  0  0  0  0  0
    0.0000    0.0000    0.0000 C   0  0  0  0  0  0  0  0  0  0  0  0
    0.0000    0.0000    0.0000 O   0  0  0  0  0  0  0  0  0  0  0  0
    0.0000    0.0000    0.0000 O   0  0  0  0  0  0  0  0  0  0  0  0
    0.0000    0.0000    0.0000 C   0  0  0  0  0  0  0  0  0  0  0  0
    0.0000    0.0000    0.0000 O   0  0  0  0  0  0  0  0  0  0  0  0
  1  2  2  0
  2  3  1  0
  4  2  1  0
  5  4  1  0
  4  6  1  0
  7  5  1  0
  5  8  2  0
  6  9  1  0
 10  6  1  0
 11  7  2  0
  3  8  1  0
  8 12  1  0
  9 13  1  0
 14 10  1  0
 15 11  1  0
 12 15  2  0
 13 16  1  0
 16 14  1  0
 16 17  1  0
 17 18  1  0
 18 19  2  0
 20 18  1  0
 19 21  1  0
 22 20  2  0
 20 23  1  0
 21 24  1  0
 25 21  2  0
 25 22  1  0
 23 26  2  0
 23 27  1  0
 24 28  1  0
 29 25  1  0
 28 29  1  0
M  CHG  2  23   1  27  -1
M  END
>  <pIC50>  (29) 
8.82

>  <ChEMBL_ID>  (29) 
CHEMBL324297

>  <document_journal>  (29) 
J. Med. Chem.

>  <bao_endpoint>  (29) 
BAO_0000190

>  <potential_duplicate>  (29) 
False

>  <uo_units>  (29) 
UO_0000065

>  <canonical_smiles>  (29) 
Oc1nc2ccccc2n1C3CCN(Cc4cc5OCOc5cc4[N+](=O)[O-])CC3

>  <parent_molecule_chembl_id>  (29) 
CHEMBL324297

>  <assay_type>  (29) 
B

>  <src_id>  (29) 
1

>  <ligand_efficiency>  (29) 
{u'le': u'0.42', u'bei': u'22.26', u'sei': u'8.36', u'lle': u'5.61'}

>  <standard_flag>  (29) 
True

>  <molecule_chembl_id>  (29) 
CHEMBL324297

>  <target_organism>  (29) 
Homo sapiens

>  <standard_units>  (29) 
nM

>  <record_id>  (29) 
215741

>  <document_chembl_id>  (29) 
CHEMBL1134447

>  <bao_format>  (29) 
BAO_0000357

>  <data_validity_description>  (29) 
None

>  <activity_id>  (29) 
111911

>  <standard_type>  (29) 
IC50

>  <target_chembl_id>  (29) 
CHEMBL233

>  <data_validity_comment>  (29) 
None

>  <published_value>  (29) 
1.5

>  <document_year>  (29) 
2001

>  <target_pref_name>  (29) 
Mu opioid receptor

>  <assay_chembl_id>  (29) 
CHEMBL757060

>  <standard_relation>  (29) 
=

>  <assay_description>  (29) 
Binding affinity against mu-opiate receptor (human) using [3H]DAMGO radioligand

>  <published_relation>  (29) 
=

>  <standard_value>  (29) 
1.5

>  <qudt_units>  (29) 
http://www.openphacts.org/units/Nanomolar

>  <target_tax_id>  (29) 
9606

>  <bao_label>  (29) 
single protein format

>  <published_units>  (29) 
nM

>  <pchembl_value>  (29) 
8.82

>  <published_type>  (29) 
IC50

>  <activity_comment>  (29) 
None

$$$$

     RDKit          

 29 33  0  0  0  0  0  0  0  0999 V2000
    0.0000    0.0000    0.0000 O   0  0  0  0  0  0  0  0  0  0  0  0
    0.0000    0.0000    0.0000 C   0  0  0  0  0  0  0  0  0  0  0  0
    0.0000    0.0000    0.0000 N   0  0  0  0  0  0  0  0  0  0  0  0
    0.0000    0.0000    0.0000 N   0  0  0  0  0  0  0  0  0  0  0  0
    0.0000    0.0000    0.0000 C   0  0  0  0  0  0  0  0  0  0  0  0
    0.0000    0.0000    0.0000 C   0  0  0  0  0  0  0  0  0  0  0  0
    0.0000    0.0000    0.0000 C   0  0  0  0  0  0  0  0  0  0  0  0
    0.0000    0.0000    0.0000 C   0  0  0  0  0  0  0  0  0  0  0  0
    0.0000    0.0000    0.0000 C   0  0  0  0  0  0  0  0  0  0  0  0
    0.0000    0.0000    0.0000 C   0  0  0  0  0  0  0  0  0  0  0  0
    0.0000    0.0000    0.0000 C   0  0  0  0  0  0  0  0  0  0  0  0
    0.0000    0.0000    0.0000 C   0  0  0  0  0  0  0  0  0  0  0  0
    0.0000    0.0000    0.0000 C   0  0  0  0  0  0  0  0  0  0  0  0
    0.0000    0.0000    0.0000 C   0  0  0  0  0  0  0  0  0  0  0  0
    0.0000    0.0000    0.0000 C   0  0  0  0  0  0  0  0  0  0  0  0
    0.0000    0.0000    0.0000 N   0  0  0  0  0  0  0  0  0  0  0  0
    0.0000    0.0000    0.0000 C   0  0  0  0  0  0  0  0  0  0  0  0
    0.0000    0.0000    0.0000 C   0  0  0  0  0  0  0  0  0  0  0  0
    0.0000    0.0000    0.0000 C   0  0  0  0  0  0  0  0  0  0  0  0
    0.0000    0.0000    0.0000 C   0  0  0  0  0  0  0  0  0  0  0  0
    0.0000    0.0000    0.0000 C   0  0  0  0  0  0  0  0  0  0  0  0
    0.0000    0.0000    0.0000 C   0  0  0  0  0  0  0  0  0  0  0  0
    0.0000    0.0000    0.0000 N   0  0  0  0  0  0  0  0  0  0  0  0
    0.0000    0.0000    0.0000 O   0  0  0  0  0  0  0  0  0  0  0  0
    0.0000    0.0000    0.0000 C   0  0  0  0  0  0  0  0  0  0  0  0
    0.0000    0.0000    0.0000 O   0  0  0  0  0  0  0  0  0  0  0  0
    0.0000    0.0000    0.0000 O   0  0  0  0  0  0  0  0  0  0  0  0
    0.0000    0.0000    0.0000 C   0  0  0  0  0  0  0  0  0  0  0  0
    0.0000    0.0000    0.0000 O   0  0  0  0  0  0  0  0  0  0  0  0
  1  2  2  0
  2  3  1  0
  4  2  1  0
  5  4  1  0
  4  6  1  0
  7  5  1  0
  5  8  2  0
  6  9  2  0
 10  6  1  0
 11  7  2  0
  3  8  1  0
  8 12  1  0
  9 13  1  0
 14 10  1  0
 15 11  1  0
 12 15  2  0
 13 16  1  0
 16 14  1  0
 16 17  1  0
 17 18  1  0
 18 19  2  0
 20 18  1  0
 19 21  1  0
 22 20  2  0
 20 23  1  0
 21 24  1  0
 25 21  2  0
 25 22  1  0
 23 26  2  0
 23 27  1  0
 24 28  1  0
 29 25  1  0
 28 29  1  0
M  CHG  2  23   1  27  -1
M  END
>  <pIC50>  (30) 
7.71

>  <ChEMBL_ID>  (30) 
CHEMBL115229

>  <document_journal>  (30) 
J. Med. Chem.

>  <bao_endpoint>  (30) 
BAO_0000190

>  <potential_duplicate>  (30) 
False

>  <uo_units>  (30) 
UO_0000065

>  <canonical_smiles>  (30) 
Oc1nc2ccccc2n1C3=CCN(Cc4cc5OCOc5cc4[N+](=O)[O-])CC3

>  <parent_molecule_chembl_id>  (30) 
CHEMBL115229

>  <assay_type>  (30) 
B

>  <src_id>  (30) 
1

>  <ligand_efficiency>  (30) 
{u'le': u'0.36', u'bei': u'19.56', u'sei': u'7.31', u'lle': u'4.49'}

>  <standard_flag>  (30) 
True

>  <molecule_chembl_id>  (30) 
CHEMBL115229

>  <target_organism>  (30) 
Homo sapiens

>  <standard_units>  (30) 
nM

>  <record_id>  (30) 
215740

>  <document_chembl_id>  (30) 
CHEMBL1134447

>  <bao_format>  (30) 
BAO_0000357

>  <data_validity_description>  (30) 
None

>  <activity_id>  (30) 
111916

>  <standard_type>  (30) 
IC50

>  <target_chembl_id>  (30) 
CHEMBL233

>  <data_validity_comment>  (30) 
None

>  <published_value>  (30) 
19.3

>  <document_year>  (30) 
2001

>  <target_pref_name>  (30) 
Mu opioid receptor

>  <assay_chembl_id>  (30) 
CHEMBL757060

>  <standard_relation>  (30) 
=

>  <assay_description>  (30) 
Binding affinity against mu-opiate receptor (human) using [3H]DAMGO radioligand

>  <published_relation>  (30) 
=

>  <standard_value>  (30) 
19.3

>  <qudt_units>  (30) 
http://www.openphacts.org/units/Nanomolar

>  <target_tax_id>  (30) 
9606

>  <bao_label>  (30) 
single protein format

>  <published_units>  (30) 
nM

>  <pchembl_value>  (30) 
7.71

>  <published_type>  (30) 
IC50

>  <activity_comment>  (30) 
None

$$$$

     RDKit          

 30 34  0  0  0  0  0  0  0  0999 V2000
    0.0000    0.0000    0.0000 O   0  0  0  0  0  0  0  0  0  0  0  0
    0.0000    0.0000    0.0000 C   0  0  0  0  0  0  0  0  0  0  0  0
    0.0000    0.0000    0.0000 N   0  0  0  0  0  0  0  0  0  0  0  0
    0.0000    0.0000    0.0000 N   0  0  0  0  0  0  0  0  0  0  0  0
    0.0000    0.0000    0.0000 C   0  0  0  0  0  0  0  0  0  0  0  0
    0.0000    0.0000    0.0000 C   0  0  0  0  0  0  0  0  0  0  0  0
    0.0000    0.0000    0.0000 C   0  0  0  0  0  0  0  0  0  0  0  0
    0.0000    0.0000    0.0000 C   0  0  0  0  0  0  0  0  0  0  0  0
    0.0000    0.0000    0.0000 C   0  0  0  0  0  0  0  0  0  0  0  0
    0.0000    0.0000    0.0000 C   0  0  0  0  0  0  0  0  0  0  0  0
    0.0000    0.0000    0.0000 C   0  0  0  0  0  0  0  0  0  0  0  0
    0.0000    0.0000    0.0000 C   0  0  0  0  0  0  0  0  0  0  0  0
    0.0000    0.0000    0.0000 C   0  0  0  0  0  0  0  0  0  0  0  0
    0.0000    0.0000    0.0000 C   0  0  0  0  0  0  0  0  0  0  0  0
    0.0000    0.0000    0.0000 C   0  0  0  0  0  0  0  0  0  0  0  0
    0.0000    0.0000    0.0000 N   0  0  0  0  0  0  0  0  0  0  0  0
    0.0000    0.0000    0.0000 C   0  0  0  0  0  0  0  0  0  0  0  0
    0.0000    0.0000    0.0000 O   0  0  0  0  0  0  0  0  0  0  0  0
    0.0000    0.0000    0.0000 O   0  0  0  0  0  0  0  0  0  0  0  0
    0.0000    0.0000    0.0000 C   0  0  0  0  0  0  0  0  0  0  0  0
    0.0000    0.0000    0.0000 C   0  0  0  0  0  0  0  0  0  0  0  0
    0.0000    0.0000    0.0000 C   0  0  0  0  0  0  0  0  0  0  0  0
    0.0000    0.0000    0.0000 C   0  0  0  0  0  0  0  0  0  0  0  0
    0.0000    0.0000    0.0000 C   0  0  0  0  0  0  0  0  0  0  0  0
    0.0000    0.0000    0.0000 C   0  0  0  0  0  0  0  0  0  0  0  0
    0.0000    0.0000    0.0000 Cl  0  0  0  0  0  0  0  0  0  0  0  0
    0.0000    0.0000    0.0000 O   0  0  0  0  0  0  0  0  0  0  0  0
    0.0000    0.0000    0.0000 C   0  0  0  0  0  0  0  0  0  0  0  0
    0.0000    0.0000    0.0000 C   0  0  0  0  0  0  0  0  0  0  0  0
    0.0000    0.0000    0.0000 O   0  0  0  0  0  0  0  0  0  0  0  0
  1  2  2  0
  2  3  1  0
  4  2  1  0
  5  4  1  0
  4  6  1  0
  7  5  1  0
  5  8  2  0
  6  9  1  0
 10  6  1  0
 11  7  2  0
  3  8  1  0
  8 12  1  0
  9 13  1  0
 14 10  1  0
 15 11  1  0
 12 15  2  0
 13 16  1  0
 16 14  1  0
 16 17  1  0
 17 18  2  0
 17 19  1  0
 19 20  1  0
 20 21  1  0
 21 22  2  0
 23 21  1  0
 22 24  1  0
 25 23  2  0
 23 26  1  0
 24 27  1  0
 28 24  2  0
 28 25  1  0
 27 29  1  0
 30 28  1  0
 29 30  1  0
M  END
>  <pIC50>  (31) 
6.83

>  <ChEMBL_ID>  (31) 
CHEMBL115444

>  <document_journal>  (31) 
J. Med. Chem.

>  <bao_endpoint>  (31) 
BAO_0000190

>  <potential_duplicate>  (31) 
False

>  <uo_units>  (31) 
UO_0000065

>  <canonical_smiles>  (31) 
Oc1nc2ccccc2n1C3CCN(CC3)C(=O)OCc4cc5OCOc5cc4Cl

>  <parent_molecule_chembl_id>  (31) 
CHEMBL115444

>  <assay_type>  (31) 
B

>  <src_id>  (31) 
1

>  <ligand_efficiency>  (31) 
{u'le': u'0.31', u'bei': u'15.9', u'sei': u'7.94', u'lle': u'2.95'}

>  <standard_flag>  (31) 
True

>  <molecule_chembl_id>  (31) 
CHEMBL115444

>  <target_organism>  (31) 
Homo sapiens

>  <standard_units>  (31) 
nM

>  <record_id>  (31) 
215738

>  <document_chembl_id>  (31) 
CHEMBL1134447

>  <bao_format>  (31) 
BAO_0000357

>  <data_validity_description>  (31) 
None

>  <activity_id>  (31) 
114584

>  <standard_type>  (31) 
IC50

>  <target_chembl_id>  (31) 
CHEMBL233

>  <data_validity_comment>  (31) 
None

>  <published_value>  (31) 
147

>  <document_year>  (31) 
2001

>  <target_pref_name>  (31) 
Mu opioid receptor

>  <assay_chembl_id>  (31) 
CHEMBL757060

>  <standard_relation>  (31) 
=

>  <assay_description>  (31) 
Binding affinity against mu-opiate receptor (human) using [3H]DAMGO radioligand

>  <published_relation>  (31) 
=

>  <standard_value>  (31) 
147

>  <qudt_units>  (31) 
http://www.openphacts.org/units/Nanomolar

>  <target_tax_id>  (31) 
9606

>  <bao_label>  (31) 
single protein format

>  <published_units>  (31) 
nM

>  <pchembl_value>  (31) 
6.83

>  <published_type>  (31) 
IC50

>  <activity_comment>  (31) 
None

$$$$

     RDKit          

 32 36  0  0  0  0  0  0  0  0999 V2000
    0.0000    0.0000    0.0000 O   0  0  0  0  0  0  0  0  0  0  0  0
    0.0000    0.0000    0.0000 C   0  0  0  0  0  0  0  0  0  0  0  0
    0.0000    0.0000    0.0000 N   0  0  0  0  0  0  0  0  0  0  0  0
    0.0000    0.0000    0.0000 N   0  0  0  0  0  0  0  0  0  0  0  0
    0.0000    0.0000    0.0000 C   0  0  0  0  0  0  0  0  0  0  0  0
    0.0000    0.0000    0.0000 C   0  0  0  0  0  0  0  0  0  0  0  0
    0.0000    0.0000    0.0000 C   0  0  0  0  0  0  0  0  0  0  0  0
    0.0000    0.0000    0.0000 C   0  0  0  0  0  0  0  0  0  0  0  0
    0.0000    0.0000    0.0000 C   0  0  0  0  0  0  0  0  0  0  0  0
    0.0000    0.0000    0.0000 C   0  0  0  0  0  0  0  0  0  0  0  0
    0.0000    0.0000    0.0000 C   0  0  0  0  0  0  0  0  0  0  0  0
    0.0000    0.0000    0.0000 C   0  0  0  0  0  0  0  0  0  0  0  0
    0.0000    0.0000    0.0000 C   0  0  0  0  0  0  0  0  0  0  0  0
    0.0000    0.0000    0.0000 C   0  0  0  0  0  0  0  0  0  0  0  0
    0.0000    0.0000    0.0000 C   0  0  0  0  0  0  0  0  0  0  0  0
    0.0000    0.0000    0.0000 N   0  0  0  0  0  0  0  0  0  0  0  0
    0.0000    0.0000    0.0000 C   0  0  0  0  0  0  0  0  0  0  0  0
    0.0000    0.0000    0.0000 O   0  0  0  0  0  0  0  0  0  0  0  0
    0.0000    0.0000    0.0000 O   0  0  0  0  0  0  0  0  0  0  0  0
    0.0000    0.0000    0.0000 C   0  0  0  0  0  0  0  0  0  0  0  0
    0.0000    0.0000    0.0000 C   0  0  0  0  0  0  0  0  0  0  0  0
    0.0000    0.0000    0.0000 C   0  0  0  0  0  0  0  0  0  0  0  0
    0.0000    0.0000    0.0000 C   0  0  0  0  0  0  0  0  0  0  0  0
    0.0000    0.0000    0.0000 C   0  0  0  0  0  0  0  0  0  0  0  0
    0.0000    0.0000    0.0000 C   0  0  0  0  0  0  0  0  0  0  0  0
    0.0000    0.0000    0.0000 N   0  0  0  0  0  0  0  0  0  0  0  0
    0.0000    0.0000    0.0000 O   0  0  0  0  0  0  0  0  0  0  0  0
    0.0000    0.0000    0.0000 C   0  0  0  0  0  0  0  0  0  0  0  0
    0.0000    0.0000    0.0000 O   0  0  0  0  0  0  0  0  0  0  0  0
    0.0000    0.0000    0.0000 O   0  0  0  0  0  0  0  0  0  0  0  0
    0.0000    0.0000    0.0000 C   0  0  0  0  0  0  0  0  0  0  0  0
    0.0000    0.0000    0.0000 O   0  0  0  0  0  0  0  0  0  0  0  0
  1  2  2  0
  2  3  1  0
  4  2  1  0
  5  4  1  0
  4  6  1  0
  7  5  1  0
  5  8  2  0
  6  9  1  0
 10  6  1  0
 11  7  2  0
  3  8  1  0
  8 12  1  0
  9 13  1  0
 14 10  1  0
 15 11  1  0
 12 15  2  0
 13 16  1  0
 16 14  1  0
 16 17  1  0
 17 18  2  0
 17 19  1  0
 19 20  1  0
 20 21  1  0
 21 22  2  0
 23 21  1  0
 22 24  1  0
 25 23  2  0
 23 26  1  0
 24 27  1  0
 28 24  2  0
 28 25  1  0
 26 29  2  0
 26 30  1  0
 27 31  1  0
 32 28  1  0
 31 32  1  0
M  CHG  2  26   1  30  -1
M  END
>  <pIC50>  (32) 
5.98

>  <ChEMBL_ID>  (32) 
CHEMBL115549

>  <document_journal>  (32) 
J. Med. Chem.

>  <bao_endpoint>  (32) 
BAO_0000190

>  <potential_duplicate>  (32) 
False

>  <uo_units>  (32) 
UO_0000065

>  <canonical_smiles>  (32) 
Oc1nc2ccccc2n1C3CCN(CC3)C(=O)OCc4cc5OCOc5cc4[N+](=O)[O-]

>  <parent_molecule_chembl_id>  (32) 
CHEMBL115549

>  <assay_type>  (32) 
B

>  <src_id>  (32) 
1

>  <ligand_efficiency>  (32) 
{u'le': u'0.26', u'bei': u'13.58', u'sei': u'4.53', u'lle': u'2.87'}

>  <standard_flag>  (32) 
True

>  <molecule_chembl_id>  (32) 
CHEMBL115549

>  <target_organism>  (32) 
Homo sapiens

>  <standard_units>  (32) 
nM

>  <record_id>  (32) 
215737

>  <document_chembl_id>  (32) 
CHEMBL1134447

>  <bao_format>  (32) 
BAO_0000357

>  <data_validity_description>  (32) 
None

>  <activity_id>  (32) 
115902

>  <standard_type>  (32) 
IC50

>  <target_chembl_id>  (32) 
CHEMBL233

>  <data_validity_comment>  (32) 
None

>  <published_value>  (32) 
1050

>  <document_year>  (32) 
2001

>  <target_pref_name>  (32) 
Mu opioid receptor

>  <assay_chembl_id>  (32) 
CHEMBL757060

>  <standard_relation>  (32) 
=

>  <assay_description>  (32) 
Binding affinity against mu-opiate receptor (human) using [3H]DAMGO radioligand

>  <published_relation>  (32) 
=

>  <standard_value>  (32) 
1050

>  <qudt_units>  (32) 
http://www.openphacts.org/units/Nanomolar

>  <target_tax_id>  (32) 
9606

>  <bao_label>  (32) 
single protein format

>  <published_units>  (32) 
nM

>  <pchembl_value>  (32) 
5.98

>  <published_type>  (32) 
IC50

>  <activity_comment>  (32) 
None

$$$$

     RDKit          

 28 32  0  0  0  0  0  0  0  0999 V2000
    0.0000    0.0000    0.0000 O   0  0  0  0  0  0  0  0  0  0  0  0
    0.0000    0.0000    0.0000 C   0  0  0  0  0  0  0  0  0  0  0  0
    0.0000    0.0000    0.0000 N   0  0  0  0  0  0  0  0  0  0  0  0
    0.0000    0.0000    0.0000 N   0  0  0  0  0  0  0  0  0  0  0  0
    0.0000    0.0000    0.0000 C   0  0  0  0  0  0  0  0  0  0  0  0
    0.0000    0.0000    0.0000 C   0  0  0  0  0  0  0  0  0  0  0  0
    0.0000    0.0000    0.0000 C   0  0  0  0  0  0  0  0  0  0  0  0
    0.0000    0.0000    0.0000 C   0  0  0  0  0  0  0  0  0  0  0  0
    0.0000    0.0000    0.0000 C   0  0  0  0  0  0  0  0  0  0  0  0
    0.0000    0.0000    0.0000 C   0  0  0  0  0  0  0  0  0  0  0  0
    0.0000    0.0000    0.0000 C   0  0  0  0  0  0  0  0  0  0  0  0
    0.0000    0.0000    0.0000 C   0  0  0  0  0  0  0  0  0  0  0  0
    0.0000    0.0000    0.0000 C   0  0  0  0  0  0  0  0  0  0  0  0
    0.0000    0.0000    0.0000 C   0  0  0  0  0  0  0  0  0  0  0  0
    0.0000    0.0000    0.0000 N   0  0  0  0  0  0  0  0  0  0  0  0
    0.0000    0.0000    0.0000 C   0  0  0  0  0  0  0  0  0  0  0  0
    0.0000    0.0000    0.0000 C   0  0  0  0  0  0  0  0  0  0  0  0
    0.0000    0.0000    0.0000 C   0  0  0  0  0  0  0  0  0  0  0  0
    0.0000    0.0000    0.0000 C   0  0  0  0  0  0  0  0  0  0  0  0
    0.0000    0.0000    0.0000 C   0  0  0  0  0  0  0  0  0  0  0  0
    0.0000    0.0000    0.0000 C   0  0  0  0  0  0  0  0  0  0  0  0
    0.0000    0.0000    0.0000 C   0  0  0  0  0  0  0  0  0  0  0  0
    0.0000    0.0000    0.0000 C   0  0  0  0  0  0  0  0  0  0  0  0
    0.0000    0.0000    0.0000 Cl  0  0  0  0  0  0  0  0  0  0  0  0
    0.0000    0.0000    0.0000 O   0  0  0  0  0  0  0  0  0  0  0  0
    0.0000    0.0000    0.0000 C   0  0  0  0  0  0  0  0  0  0  0  0
    0.0000    0.0000    0.0000 C   0  0  0  0  0  0  0  0  0  0  0  0
    0.0000    0.0000    0.0000 O   0  0  0  0  0  0  0  0  0  0  0  0
  1  2  2  0
  2  3  1  0
  2  4  1  0
  4  5  1  0
  4  6  1  0
  5  7  1  0
  8  5  1  0
  6  9  1  0
  6 10  2  0
  7 11  1  0
 12  8  1  0
  9 13  2  0
 14 10  1  0
 10  3  1  0
 11 15  1  0
 15 12  1  0
 16 13  1  0
 13 17  1  0
 17 14  2  0
 15 18  1  0
 18 19  1  0
 19 20  2  0
 21 19  1  0
 20 22  1  0
 23 21  2  0
 21 24  1  0
 22 25  1  0
 26 22  2  0
 26 23  1  0
 25 27  1  0
 28 26  1  0
 27 28  1  0
M  END
>  <pIC50>  (33) 
8.62

>  <ChEMBL_ID>  (33) 
CHEMBL420863

>  <document_journal>  (33) 
J. Med. Chem.

>  <bao_endpoint>  (33) 
BAO_0000190

>  <potential_duplicate>  (33) 
False

>  <uo_units>  (33) 
UO_0000065

>  <canonical_smiles>  (33) 
Cc1ccc2nc(O)n(C3CCN(Cc4cc5OCOc5cc4Cl)CC3)c2c1

>  <parent_molecule_chembl_id>  (33) 
CHEMBL420863

>  <assay_type>  (33) 
B

>  <src_id>  (33) 
1

>  <ligand_efficiency>  (33) 
{u'le': u'0.42', u'bei': u'21.56', u'sei': u'14.43', u'lle': u'4.16'}

>  <standard_flag>  (33) 
True

>  <molecule_chembl_id>  (33) 
CHEMBL420863

>  <target_organism>  (33) 
Homo sapiens

>  <standard_units>  (33) 
nM

>  <record_id>  (33) 
215780

>  <document_chembl_id>  (33) 
CHEMBL1134447

>  <bao_format>  (33) 
BAO_0000357

>  <data_validity_description>  (33) 
None

>  <activity_id>  (33) 
115906

>  <standard_type>  (33) 
IC50

>  <target_chembl_id>  (33) 
CHEMBL233

>  <data_validity_comment>  (33) 
None

>  <published_value>  (33) 
2.4

>  <document_year>  (33) 
2001

>  <target_pref_name>  (33) 
Mu opioid receptor

>  <assay_chembl_id>  (33) 
CHEMBL757060

>  <standard_relation>  (33) 
=

>  <assay_description>  (33) 
Binding affinity against mu-opiate receptor (human) using [3H]DAMGO radioligand

>  <published_relation>  (33) 
=

>  <standard_value>  (33) 
2.4

>  <qudt_units>  (33) 
http://www.openphacts.org/units/Nanomolar

>  <target_tax_id>  (33) 
9606

>  <bao_label>  (33) 
single protein format

>  <published_units>  (33) 
nM

>  <pchembl_value>  (33) 
8.62

>  <published_type>  (33) 
IC50

>  <activity_comment>  (33) 
None

$$$$

     RDKit          

 25 28  0  0  0  0  0  0  0  0999 V2000
    0.0000    0.0000    0.0000 O   0  0  0  0  0  0  0  0  0  0  0  0
    0.0000    0.0000    0.0000 C   0  0  0  0  0  0  0  0  0  0  0  0
    0.0000    0.0000    0.0000 N   0  0  0  0  0  0  0  0  0  0  0  0
    0.0000    0.0000    0.0000 N   0  0  0  0  0  0  0  0  0  0  0  0
    0.0000    0.0000    0.0000 C   0  0  0  0  0  0  0  0  0  0  0  0
    0.0000    0.0000    0.0000 C   0  0  0  0  0  0  0  0  0  0  0  0
    0.0000    0.0000    0.0000 C   0  0  0  0  0  0  0  0  0  0  0  0
    0.0000    0.0000    0.0000 C   0  0  0  0  0  0  0  0  0  0  0  0
    0.0000    0.0000    0.0000 C   0  0  0  0  0  0  0  0  0  0  0  0
    0.0000    0.0000    0.0000 C   0  0  0  0  0  0  0  0  0  0  0  0
    0.0000    0.0000    0.0000 C   0  0  0  0  0  0  0  0  0  0  0  0
    0.0000    0.0000    0.0000 C   0  0  0  0  0  0  0  0  0  0  0  0
    0.0000    0.0000    0.0000 C   0  0  0  0  0  0  0  0  0  0  0  0
    0.0000    0.0000    0.0000 N   0  0  0  0  0  0  0  0  0  0  0  0
    0.0000    0.0000    0.0000 C   0  0  0  0  0  0  0  0  0  0  0  0
    0.0000    0.0000    0.0000 C   0  0  0  0  0  0  0  0  0  0  0  0
    0.0000    0.0000    0.0000 C   0  0  0  0  0  0  0  0  0  0  0  0
    0.0000    0.0000    0.0000 C   0  0  0  0  0  0  0  0  0  0  0  0
    0.0000    0.0000    0.0000 C   0  0  0  0  0  0  0  0  0  0  0  0
    0.0000    0.0000    0.0000 C   0  0  0  0  0  0  0  0  0  0  0  0
    0.0000    0.0000    0.0000 Cl  0  0  0  0  0  0  0  0  0  0  0  0
    0.0000    0.0000    0.0000 O   0  0  0  0  0  0  0  0  0  0  0  0
    0.0000    0.0000    0.0000 C   0  0  0  0  0  0  0  0  0  0  0  0
    0.0000    0.0000    0.0000 C   0  0  0  0  0  0  0  0  0  0  0  0
    0.0000    0.0000    0.0000 O   0  0  0  0  0  0  0  0  0  0  0  0
  1  2  2  0
  2  3  1  0
  4  2  1  0
  5  4  1  0
  4  6  1  0
  7  5  1  0
  5  8  2  0
  6  9  1  0
 10  7  2  0
  3  8  1  0
  8 11  1  0
  9 12  1  0
 13 10  1  0
 11 13  2  0
 12 14  1  0
 14 15  1  0
 15 16  1  0
 16 17  2  0
 18 16  1  0
 17 19  1  0
 20 18  2  0
 18 21  1  0
 19 22  1  0
 23 19  2  0
 23 20  1  0
 22 24  1  0
 25 23  1  0
 24 25  1  0
M  END
>  <pIC50>  (34) 
6.63

>  <ChEMBL_ID>  (34) 
CHEMBL114280

>  <document_journal>  (34) 
J. Med. Chem.

>  <bao_endpoint>  (34) 
BAO_0000190

>  <potential_duplicate>  (34) 
True

>  <uo_units>  (34) 
UO_0000065

>  <canonical_smiles>  (34) 
Oc1nc2ccccc2n1CCCNCc3cc4OCOc4cc3Cl

>  <parent_molecule_chembl_id>  (34) 
CHEMBL114280

>  <assay_type>  (34) 
B

>  <src_id>  (34) 
1

>  <ligand_efficiency>  (34) 
{u'le': u'0.36', u'bei': u'18.42', u'sei': u'9.67', u'lle': u'3.1'}

>  <standard_flag>  (34) 
True

>  <molecule_chembl_id>  (34) 
CHEMBL114280

>  <target_organism>  (34) 
Homo sapiens

>  <standard_units>  (34) 
nM

>  <record_id>  (34) 
215742

>  <document_chembl_id>  (34) 
CHEMBL1134447

>  <bao_format>  (34) 
BAO_0000357

>  <data_validity_description>  (34) 
None

>  <activity_id>  (34) 
117181

>  <standard_type>  (34) 
IC50

>  <target_chembl_id>  (34) 
CHEMBL233

>  <data_validity_comment>  (34) 
None

>  <published_value>  (34) 
235

>  <document_year>  (34) 
2001

>  <target_pref_name>  (34) 
Mu opioid receptor

>  <assay_chembl_id>  (34) 
CHEMBL757060

>  <standard_relation>  (34) 
=

>  <assay_description>  (34) 
Binding affinity against mu-opiate receptor (human) using [3H]DAMGO radioligand

>  <published_relation>  (34) 
=

>  <standard_value>  (34) 
235

>  <qudt_units>  (34) 
http://www.openphacts.org/units/Nanomolar

>  <target_tax_id>  (34) 
9606

>  <bao_label>  (34) 
single protein format

>  <published_units>  (34) 
nM

>  <pchembl_value>  (34) 
6.63

>  <published_type>  (34) 
IC50

>  <activity_comment>  (34) 
None

$$$$

     RDKit          

 25 27  0  0  0  0  0  0  0  0999 V2000
    0.0000    0.0000    0.0000 C   0  0  0  0  0  0  0  0  0  0  0  0
    0.0000    0.0000    0.0000 C   0  0  0  0  0  0  0  0  0  0  0  0
    0.0000    0.0000    0.0000 C   0  0  0  0  0  0  0  0  0  0  0  0
    0.0000    0.0000    0.0000 O   0  0  0  0  0  0  0  0  0  0  0  0
    0.0000    0.0000    0.0000 N   0  0  0  0  0  0  0  0  0  0  0  0
    0.0000    0.0000    0.0000 C   0  0  0  0  0  0  0  0  0  0  0  0
    0.0000    0.0000    0.0000 C   0  0  0  0  0  0  0  0  0  0  0  0
    0.0000    0.0000    0.0000 C   0  0  0  0  0  0  0  0  0  0  0  0
    0.0000    0.0000    0.0000 N   0  0  0  0  0  0  0  0  0  0  0  0
    0.0000    0.0000    0.0000 C   0  0  0  0  0  0  0  0  0  0  0  0
    0.0000    0.0000    0.0000 C   0  0  0  0  0  0  0  0  0  0  0  0
    0.0000    0.0000    0.0000 C   0  0  0  0  0  0  0  0  0  0  0  0
    0.0000    0.0000    0.0000 C   0  0  0  0  0  0  0  0  0  0  0  0
    0.0000    0.0000    0.0000 C   0  0  0  0  0  0  0  0  0  0  0  0
    0.0000    0.0000    0.0000 C   0  0  0  0  0  0  0  0  0  0  0  0
    0.0000    0.0000    0.0000 C   0  0  0  0  0  0  0  0  0  0  0  0
    0.0000    0.0000    0.0000 C   0  0  0  0  0  0  0  0  0  0  0  0
    0.0000    0.0000    0.0000 C   0  0  0  0  0  0  0  0  0  0  0  0
    0.0000    0.0000    0.0000 C   0  0  0  0  0  0  0  0  0  0  0  0
    0.0000    0.0000    0.0000 C   0  0  0  0  0  0  0  0  0  0  0  0
    0.0000    0.0000    0.0000 C   0  0  0  0  0  0  0  0  0  0  0  0
    0.0000    0.0000    0.0000 C   0  0  0  0  0  0  0  0  0  0  0  0
    0.0000    0.0000    0.0000 C   0  0  0  0  0  0  0  0  0  0  0  0
    0.0000    0.0000    0.0000 C   0  0  0  0  0  0  0  0  0  0  0  0
    0.0000    0.0000    0.0000 C   0  0  0  0  0  0  0  0  0  0  0  0
  1  2  1  0
  2  3  1  0
  3  4  2  0
  3  5  1  0
  5  6  1  0
  6  7  1  0
  7  8  1  0
  8  9  1  0
  9 10  1  0
 10 11  1  0
 11 12  1  0
 12 13  2  0
 13 14  1  0
 14 15  2  0
 15 16  1  0
 16 17  2  0
  9 18  1  0
 18 19  1  0
  5 20  1  0
 20 21  2  0
 21 22  1  0
 22 23  2  0
 23 24  1  0
 24 25  2  0
 19  6  1  0
 17 12  1  0
 25 20  1  0
M  END
>  <pIC50>  (35) 
8.89

>  <ChEMBL_ID>  (35) 
CHEMBL596

>  <document_journal>  (35) 
J. Med. Chem.

>  <bao_endpoint>  (35) 
BAO_0000190

>  <potential_duplicate>  (35) 
False

>  <uo_units>  (35) 
UO_0000065

>  <canonical_smiles>  (35) 
CCC(=O)N(C1CCN(CCc2ccccc2)CC1)c3ccccc3

>  <parent_molecule_chembl_id>  (35) 
CHEMBL596

>  <assay_type>  (35) 
B

>  <src_id>  (35) 
1

>  <ligand_efficiency>  (35) 
{u'le': u'0.49', u'bei': u'26.41', u'sei': u'37.73', u'lle': u'5.05'}

>  <standard_flag>  (35) 
True

>  <molecule_chembl_id>  (35) 
CHEMBL596

>  <target_organism>  (35) 
Homo sapiens

>  <standard_units>  (35) 
nM

>  <record_id>  (35) 
215768

>  <document_chembl_id>  (35) 
CHEMBL1134447

>  <bao_format>  (35) 
BAO_0000357

>  <data_validity_description>  (35) 
None

>  <activity_id>  (35) 
117189

>  <standard_type>  (35) 
IC50

>  <target_chembl_id>  (35) 
CHEMBL233

>  <data_validity_comment>  (35) 
None

>  <published_value>  (35) 
1.3

>  <document_year>  (35) 
2001

>  <target_pref_name>  (35) 
Mu opioid receptor

>  <assay_chembl_id>  (35) 
CHEMBL757060

>  <standard_relation>  (35) 
=

>  <assay_description>  (35) 
Binding affinity against mu-opiate receptor (human) using [3H]DAMGO radioligand

>  <published_relation>  (35) 
=

>  <standard_value>  (35) 
1.3

>  <qudt_units>  (35) 
http://www.openphacts.org/units/Nanomolar

>  <target_tax_id>  (35) 
9606

>  <bao_label>  (35) 
single protein format

>  <published_units>  (35) 
nM

>  <pchembl_value>  (35) 
8.89

>  <published_type>  (35) 
IC50

>  <activity_comment>  (35) 
None

$$$$

     RDKit          

 29 33  0  0  0  0  0  0  0  0999 V2000
    0.0000    0.0000    0.0000 O   0  0  0  0  0  0  0  0  0  0  0  0
    0.0000    0.0000    0.0000 C   0  0  0  0  0  0  0  0  0  0  0  0
    0.0000    0.0000    0.0000 O   0  0  0  0  0  0  0  0  0  0  0  0
    0.0000    0.0000    0.0000 C   0  0  0  0  0  0  0  0  0  0  0  0
    0.0000    0.0000    0.0000 C   0  0  0  0  0  0  0  0  0  0  0  0
    0.0000    0.0000    0.0000 C   0  0  0  0  0  0  0  0  0  0  0  0
    0.0000    0.0000    0.0000 C   0  0  0  0  0  0  0  0  0  0  0  0
    0.0000    0.0000    0.0000 C   0  0  0  0  0  0  0  0  0  0  0  0
    0.0000    0.0000    0.0000 C   0  0  0  0  0  0  0  0  0  0  0  0
    0.0000    0.0000    0.0000 C   0  0  0  0  0  0  0  0  0  0  0  0
    0.0000    0.0000    0.0000 C   0  0  0  0  0  0  0  0  0  0  0  0
    0.0000    0.0000    0.0000 C   0  0  0  0  0  0  0  0  0  0  0  0
    0.0000    0.0000    0.0000 N   0  0  0  0  0  0  0  0  0  0  0  0
    0.0000    0.0000    0.0000 C   0  0  0  0  0  0  0  0  0  0  0  0
    0.0000    0.0000    0.0000 C   0  0  0  0  0  0  0  0  0  0  0  0
    0.0000    0.0000    0.0000 C   0  0  0  0  0  0  0  0  0  0  0  0
    0.0000    0.0000    0.0000 C   0  0  0  0  0  0  0  0  0  0  0  0
    0.0000    0.0000    0.0000 C   0  0  0  0  0  0  0  0  0  0  0  0
    0.0000    0.0000    0.0000 N   0  0  0  0  0  0  0  0  0  0  0  0
    0.0000    0.0000    0.0000 C   0  0  0  0  0  0  0  0  0  0  0  0
    0.0000    0.0000    0.0000 N   0  0  0  0  0  0  0  0  0  0  0  0
    0.0000    0.0000    0.0000 C   0  0  0  0  0  0  0  0  0  0  0  0
    0.0000    0.0000    0.0000 O   0  0  0  0  0  0  0  0  0  0  0  0
    0.0000    0.0000    0.0000 C   0  0  0  0  0  0  0  0  0  0  0  0
    0.0000    0.0000    0.0000 C   0  0  0  0  0  0  0  0  0  0  0  0
    0.0000    0.0000    0.0000 C   0  0  0  0  0  0  0  0  0  0  0  0
    0.0000    0.0000    0.0000 C   0  0  0  0  0  0  0  0  0  0  0  0
    0.0000    0.0000    0.0000 C   0  0  0  0  0  0  0  0  0  0  0  0
    0.0000    0.0000    0.0000 C   0  0  0  0  0  0  0  0  0  0  0  0
  1  2  2  0
  2  3  1  0
  3  4  1  0
  4  5  1  0
  5  6  1  0
  6  7  1  0
  7  8  2  0
  8  9  1  0
  9 10  2  0
 10 11  1  0
 11 12  2  0
  2 13  1  0
 13 14  1  0
 14 15  1  0
 15 16  1  0
 16 17  1  0
 17 18  1  0
 16 19  1  0
 19 20  1  0
 20 21  1  0
 21 22  1  0
 22 23  2  0
 19 24  1  0
 24 25  2  0
 25 26  1  0
 26 27  2  0
 27 28  1  0
 28 29  2  0
 12  4  1  0
 12  7  1  0
 18 13  1  0
 22 16  1  0
 29 24  1  0
M  END
>  <pIC50>  (36) 
5.83

>  <ChEMBL_ID>  (36) 
CHEMBL325674

>  <document_journal>  (36) 
J. Med. Chem.

>  <bao_endpoint>  (36) 
BAO_0000190

>  <potential_duplicate>  (36) 
True

>  <uo_units>  (36) 
UO_0000065

>  <canonical_smiles>  (36) 
O=C(OC1CCc2ccccc12)N3CCC4(CC3)N(CNC4=O)c5ccccc5

>  <parent_molecule_chembl_id>  (36) 
CHEMBL325674

>  <assay_type>  (36) 
B

>  <src_id>  (36) 
1

>  <ligand_efficiency>  (36) 
{u'le': u'0.27', u'bei': u'14.9', u'sei': u'9.43', u'lle': u'2.75'}

>  <standard_flag>  (36) 
True

>  <molecule_chembl_id>  (36) 
CHEMBL325674

>  <target_organism>  (36) 
Homo sapiens

>  <standard_units>  (36) 
nM

>  <record_id>  (36) 
215756

>  <document_chembl_id>  (36) 
CHEMBL1134447

>  <bao_format>  (36) 
BAO_0000357

>  <data_validity_description>  (36) 
None

>  <activity_id>  (36) 
118437

>  <standard_type>  (36) 
IC50

>  <target_chembl_id>  (36) 
CHEMBL233

>  <data_validity_comment>  (36) 
None

>  <published_value>  (36) 
1470

>  <document_year>  (36) 
2001

>  <target_pref_name>  (36) 
Mu opioid receptor

>  <assay_chembl_id>  (36) 
CHEMBL757060

>  <standard_relation>  (36) 
=

>  <assay_description>  (36) 
Binding affinity against mu-opiate receptor (human) using [3H]DAMGO radioligand

>  <published_relation>  (36) 
=

>  <standard_value>  (36) 
1470

>  <qudt_units>  (36) 
http://www.openphacts.org/units/Nanomolar

>  <target_tax_id>  (36) 
9606

>  <bao_label>  (36) 
single protein format

>  <published_units>  (36) 
nM

>  <pchembl_value>  (36) 
5.83

>  <published_type>  (36) 
IC50

>  <activity_comment>  (36) 
None

$$$$

     RDKit          

 33 36  0  0  0  0  0  0  0  0999 V2000
    0.0000    0.0000    0.0000 C   0  0  0  0  0  0  0  0  0  0  0  0
    0.0000    0.0000    0.0000 C   0  0  0  0  0  0  0  0  0  0  0  0
    0.0000    0.0000    0.0000 N   0  0  0  0  0  0  0  0  0  0  0  0
    0.0000    0.0000    0.0000 C   0  0  0  0  0  0  0  0  0  0  0  0
    0.0000    0.0000    0.0000 C   0  0  0  0  0  0  0  0  0  0  0  0
    0.0000    0.0000    0.0000 N   0  0  0  0  0  0  0  0  0  0  0  0
    0.0000    0.0000    0.0000 O   0  0  0  0  0  0  0  0  0  0  0  0
    0.0000    0.0000    0.0000 O   0  0  0  0  0  0  0  0  0  0  0  0
    0.0000    0.0000    0.0000 N   0  0  0  0  0  0  0  0  0  0  0  0
    0.0000    0.0000    0.0000 C   0  0  0  0  0  0  0  0  0  0  0  0
    0.0000    0.0000    0.0000 C   0  0  0  0  0  0  0  0  0  0  0  0
    0.0000    0.0000    0.0000 N   0  0  0  0  0  0  0  0  0  0  0  0
    0.0000    0.0000    0.0000 C   0  0  0  0  0  0  0  0  0  0  0  0
    0.0000    0.0000    0.0000 O   0  0  0  0  0  0  0  0  0  0  0  0
    0.0000    0.0000    0.0000 N   0  0  0  0  0  0  0  0  0  0  0  0
    0.0000    0.0000    0.0000 C   0  0  0  0  0  0  0  0  0  0  0  0
    0.0000    0.0000    0.0000 C   0  0  0  0  0  0  0  0  0  0  0  0
    0.0000    0.0000    0.0000 C   0  0  0  0  0  0  0  0  0  0  0  0
    0.0000    0.0000    0.0000 C   0  0  0  0  0  0  0  0  0  0  0  0
    0.0000    0.0000    0.0000 C   0  0  0  0  0  0  0  0  0  0  0  0
    0.0000    0.0000    0.0000 C   0  0  0  0  0  0  0  0  0  0  0  0
    0.0000    0.0000    0.0000 C   0  0  0  0  0  0  0  0  0  0  0  0
    0.0000    0.0000    0.0000 C   0  0  0  0  0  0  0  0  0  0  0  0
    0.0000    0.0000    0.0000 N   0  0  0  0  0  0  0  0  0  0  0  0
    0.0000    0.0000    0.0000 N   0  0  0  0  0  0  0  0  0  0  0  0
    0.0000    0.0000    0.0000 C   0  0  0  0  0  0  0  0  0  0  0  0
    0.0000    0.0000    0.0000 C   0  0  0  0  0  0  0  0  0  0  0  0
    0.0000    0.0000    0.0000 C   0  0  0  0  0  0  0  0  0  0  0  0
    0.0000    0.0000    0.0000 C   0  0  0  0  0  0  0  0  0  0  0  0
    0.0000    0.0000    0.0000 Cl  0  0  0  0  0  0  0  0  0  0  0  0
    0.0000    0.0000    0.0000 C   0  0  0  0  0  0  0  0  0  0  0  0
    0.0000    0.0000    0.0000 C   0  0  0  0  0  0  0  0  0  0  0  0
    0.0000    0.0000    0.0000 Cl  0  0  0  0  0  0  0  0  0  0  0  0
  1  2  1  0
  2  3  2  0
  3  4  1  0
  4  5  2  0
  5  6  1  0
  6  7  2  0
  6  8  1  0
  5  9  1  0
  9 10  1  0
 10 11  1  0
 11 12  1  0
 12 13  1  0
 13 14  2  0
 13 15  1  0
 15 16  1  0
 16 17  1  0
 17 18  1  0
 18 19  1  0
 19 20  1  0
 18 21  1  0
 21 22  1  0
 22 23  2  0
 23 24  1  0
 24 25  1  0
 23 26  1  0
 26 27  2  0
 27 28  1  0
 28 29  2  0
 29 30  1  0
 29 31  1  0
 31 32  2  0
 32 33  1  0
  9  2  1  0
 20 15  1  0
 25 21  2  0
 32 26  1  0
M  CHG  2   6   1   8  -1
M  END
>  <pIC50>  (37) 
5.54

>  <ChEMBL_ID>  (37) 
CHEMBL419214

>  <document_journal>  (37) 
J. Med. Chem.

>  <bao_endpoint>  (37) 
BAO_0000190

>  <potential_duplicate>  (37) 
False

>  <uo_units>  (37) 
UO_0000065

>  <canonical_smiles>  (37) 
Cc1ncc([N+](=O)[O-])n1CCNC(=O)N2CCC(CC2)c3cc([nH]n3)c4ccc(Cl)cc4Cl

>  <parent_molecule_chembl_id>  (37) 
CHEMBL419214

>  <assay_type>  (37) 
B

>  <src_id>  (37) 
1

>  <ligand_efficiency>  (37) 
{u'le': u'0.23', u'bei': u'11.25', u'sei': u'4.44', u'lle': u'1.94'}

>  <standard_flag>  (37) 
True

>  <molecule_chembl_id>  (37) 
CHEMBL419214

>  <target_organism>  (37) 
Homo sapiens

>  <standard_units>  (37) 
nM

>  <record_id>  (37) 
215765

>  <document_chembl_id>  (37) 
CHEMBL1134447

>  <bao_format>  (37) 
BAO_0000357

>  <data_validity_description>  (37) 
None

>  <activity_id>  (37) 
118442

>  <standard_type>  (37) 
IC50

>  <target_chembl_id>  (37) 
CHEMBL233

>  <data_validity_comment>  (37) 
None

>  <published_value>  (37) 
2890

>  <document_year>  (37) 
2001

>  <target_pref_name>  (37) 
Mu opioid receptor

>  <assay_chembl_id>  (37) 
CHEMBL757060

>  <standard_relation>  (37) 
=

>  <assay_description>  (37) 
Binding affinity against mu-opiate receptor (human) using [3H]DAMGO radioligand

>  <published_relation>  (37) 
=

>  <standard_value>  (37) 
2890

>  <qudt_units>  (37) 
http://www.openphacts.org/units/Nanomolar

>  <target_tax_id>  (37) 
9606

>  <bao_label>  (37) 
single protein format

>  <published_units>  (37) 
nM

>  <pchembl_value>  (37) 
5.54

>  <published_type>  (37) 
IC50

>  <activity_comment>  (37) 
None

$$$$

     RDKit          

 33 37  0  0  0  0  0  0  0  0999 V2000
    0.0000    0.0000    0.0000 C   0  0  0  0  0  0  0  0  0  0  0  0
    0.0000    0.0000    0.0000 N   0  0  0  0  0  0  0  0  0  0  0  0
    0.0000    0.0000    0.0000 C   0  0  0  0  0  0  0  0  0  0  0  0
    0.0000    0.0000    0.0000 O   0  0  0  0  0  0  0  0  0  0  0  0
    0.0000    0.0000    0.0000 C   0  0  0  0  0  0  0  0  0  0  0  0
    0.0000    0.0000    0.0000 N   0  0  0  0  0  0  0  0  0  0  0  0
    0.0000    0.0000    0.0000 C   0  0  0  0  0  0  0  0  0  0  0  0
    0.0000    0.0000    0.0000 N   0  0  0  0  0  0  0  0  0  0  0  0
    0.0000    0.0000    0.0000 C   0  0  0  0  0  0  0  0  0  0  0  0
    0.0000    0.0000    0.0000 C   0  0  0  0  0  0  0  0  0  0  0  0
    0.0000    0.0000    0.0000 C   0  0  0  0  0  0  0  0  0  0  0  0
    0.0000    0.0000    0.0000 C   0  0  0  0  0  0  0  0  0  0  0  0
    0.0000    0.0000    0.0000 C   0  0  0  0  0  0  0  0  0  0  0  0
    0.0000    0.0000    0.0000 C   0  0  0  0  0  0  0  0  0  0  0  0
    0.0000    0.0000    0.0000 C   0  0  0  0  0  0  0  0  0  0  0  0
    0.0000    0.0000    0.0000 C   0  0  0  0  0  0  0  0  0  0  0  0
    0.0000    0.0000    0.0000 C   0  0  0  0  0  0  0  0  0  0  0  0
    0.0000    0.0000    0.0000 N   0  0  0  0  0  0  0  0  0  0  0  0
    0.0000    0.0000    0.0000 C   0  0  0  0  0  0  0  0  0  0  0  0
    0.0000    0.0000    0.0000 C   0  0  0  0  0  0  0  0  0  0  0  0
    0.0000    0.0000    0.0000 C   0  0  0  0  0  0  0  0  0  0  0  0
    0.0000    0.0000    0.0000 C   0  0  0  0  0  0  0  0  0  0  0  0
    0.0000    0.0000    0.0000 O   0  0  0  0  0  0  0  0  0  0  0  0
    0.0000    0.0000    0.0000 C   0  0  0  0  0  0  0  0  0  0  0  0
    0.0000    0.0000    0.0000 O   0  0  0  0  0  0  0  0  0  0  0  0
    0.0000    0.0000    0.0000 C   0  0  0  0  0  0  0  0  0  0  0  0
    0.0000    0.0000    0.0000 C   0  0  0  0  0  0  0  0  0  0  0  0
    0.0000    0.0000    0.0000 C   0  0  0  0  0  0  0  0  0  0  0  0
    0.0000    0.0000    0.0000 Cl  0  0  0  0  0  0  0  0  0  0  0  0
    0.0000    0.0000    0.0000 C   0  0  0  0  0  0  0  0  0  0  0  0
    0.0000    0.0000    0.0000 C   0  0  0  0  0  0  0  0  0  0  0  0
    0.0000    0.0000    0.0000 C   0  0  0  0  0  0  0  0  0  0  0  0
    0.0000    0.0000    0.0000 O   0  0  0  0  0  0  0  0  0  0  0  0
  1  2  1  0
  2  3  1  0
  3  4  2  0
  3  5  1  0
  5  6  1  0
  6  7  1  0
  7  8  1  0
  8  9  1  0
  9 10  2  0
 10 11  1  0
 11 12  2  0
 12 13  1  0
 13 14  2  0
  8 15  1  0
 15 16  1  0
 16 17  1  0
 17 18  1  0
 18 19  1  0
 19 20  1  0
 20 21  2  0
 21 22  1  0
 22 23  1  0
 23 24  1  0
 24 25  1  0
 25 26  1  0
 26 27  1  0
 27 28  2  0
 28 29  1  0
 18 30  1  0
 30 31  1  0
 15 32  1  0
 32 33  2  0
 32  6  1  0
 14  9  1  0
 31 15  1  0
 28 20  1  0
 26 22  2  0
M  END
>  <pIC50>  (38) 
9.05

>  <ChEMBL_ID>  (38) 
CHEMBL115222

>  <document_journal>  (38) 
J. Med. Chem.

>  <bao_endpoint>  (38) 
BAO_0000190

>  <potential_duplicate>  (38) 
True

>  <uo_units>  (38) 
UO_0000065

>  <canonical_smiles>  (38) 
CNC(=O)CN1CN(c2ccccc2)C3(CCN(Cc4cc5OCOc5cc4Cl)CC3)C1=O

>  <parent_molecule_chembl_id>  (38) 
CHEMBL115222

>  <assay_type>  (38) 
B

>  <src_id>  (38) 
1

>  <ligand_efficiency>  (38) 
{u'le': u'0.37', u'bei': u'19.21', u'sei': u'12.17', u'lle': u'6.74'}

>  <standard_flag>  (38) 
True

>  <molecule_chembl_id>  (38) 
CHEMBL115222

>  <target_organism>  (38) 
Homo sapiens

>  <standard_units>  (38) 
nM

>  <record_id>  (38) 
215764

>  <document_chembl_id>  (38) 
CHEMBL1134447

>  <bao_format>  (38) 
BAO_0000357

>  <data_validity_description>  (38) 
None

>  <activity_id>  (38) 
118447

>  <standard_type>  (38) 
IC50

>  <target_chembl_id>  (38) 
CHEMBL233

>  <data_validity_comment>  (38) 
None

>  <published_value>  (38) 
0.9

>  <document_year>  (38) 
2001

>  <target_pref_name>  (38) 
Mu opioid receptor

>  <assay_chembl_id>  (38) 
CHEMBL757060

>  <standard_relation>  (38) 
=

>  <assay_description>  (38) 
Binding affinity against mu-opiate receptor (human) using [3H]DAMGO radioligand

>  <published_relation>  (38) 
=

>  <standard_value>  (38) 
0.9

>  <qudt_units>  (38) 
http://www.openphacts.org/units/Nanomolar

>  <target_tax_id>  (38) 
9606

>  <bao_label>  (38) 
single protein format

>  <published_units>  (38) 
nM

>  <pchembl_value>  (38) 
9.05

>  <published_type>  (38) 
IC50

>  <activity_comment>  (38) 
None

$$$$

     RDKit          

 31 35  0  0  0  0  0  0  0  0999 V2000
    0.0000    0.0000    0.0000 Cl  0  0  0  0  0  0  0  0  0  0  0  0
    0.0000    0.0000    0.0000 C   0  0  0  0  0  0  0  0  0  0  0  0
    0.0000    0.0000    0.0000 C   0  0  0  0  0  0  0  0  0  0  0  0
    0.0000    0.0000    0.0000 C   0  0  0  0  0  0  0  0  0  0  0  0
    0.0000    0.0000    0.0000 O   0  0  0  0  0  0  0  0  0  0  0  0
    0.0000    0.0000    0.0000 C   0  0  0  0  0  0  0  0  0  0  0  0
    0.0000    0.0000    0.0000 O   0  0  0  0  0  0  0  0  0  0  0  0
    0.0000    0.0000    0.0000 C   0  0  0  0  0  0  0  0  0  0  0  0
    0.0000    0.0000    0.0000 C   0  0  0  0  0  0  0  0  0  0  0  0
    0.0000    0.0000    0.0000 C   0  0  0  0  0  0  0  0  0  0  0  0
    0.0000    0.0000    0.0000 C   0  0  0  0  0  0  0  0  0  0  0  0
    0.0000    0.0000    0.0000 O   0  0  0  0  0  0  0  0  0  0  0  0
    0.0000    0.0000    0.0000 C   0  0  0  0  0  0  0  0  0  0  0  0
    0.0000    0.0000    0.0000 O   0  0  0  0  0  0  0  0  0  0  0  0
    0.0000    0.0000    0.0000 N   0  0  0  0  0  0  0  0  0  0  0  0
    0.0000    0.0000    0.0000 C   0  0  0  0  0  0  0  0  0  0  0  0
    0.0000    0.0000    0.0000 C   0  0  0  0  0  0  0  0  0  0  0  0
    0.0000    0.0000    0.0000 C   0  0  0  0  0  0  0  0  0  0  0  0
    0.0000    0.0000    0.0000 C   0  0  0  0  0  0  0  0  0  0  0  0
    0.0000    0.0000    0.0000 C   0  0  0  0  0  0  0  0  0  0  0  0
    0.0000    0.0000    0.0000 N   0  0  0  0  0  0  0  0  0  0  0  0
    0.0000    0.0000    0.0000 C   0  0  0  0  0  0  0  0  0  0  0  0
    0.0000    0.0000    0.0000 O   0  0  0  0  0  0  0  0  0  0  0  0
    0.0000    0.0000    0.0000 C   0  0  0  0  0  0  0  0  0  0  0  0
    0.0000    0.0000    0.0000 N   0  0  0  0  0  0  0  0  0  0  0  0
    0.0000    0.0000    0.0000 C   0  0  0  0  0  0  0  0  0  0  0  0
    0.0000    0.0000    0.0000 C   0  0  0  0  0  0  0  0  0  0  0  0
    0.0000    0.0000    0.0000 C   0  0  0  0  0  0  0  0  0  0  0  0
    0.0000    0.0000    0.0000 C   0  0  0  0  0  0  0  0  0  0  0  0
    0.0000    0.0000    0.0000 C   0  0  0  0  0  0  0  0  0  0  0  0
    0.0000    0.0000    0.0000 C   0  0  0  0  0  0  0  0  0  0  0  0
  1  2  1  0
  2  3  2  0
  3  4  1  0
  4  5  1  0
  5  6  1  0
  6  7  1  0
  7  8  1  0
  8  9  1  0
  9 10  2  0
 10 11  1  0
 11 12  1  0
 12 13  1  0
 13 14  2  0
 13 15  1  0
 15 16  1  0
 16 17  1  0
 17 18  1  0
 18 19  1  0
 19 20  1  0
 18 21  1  0
 21 22  1  0
 22 23  2  0
 22 24  1  0
 24 25  1  0
 25 26  1  0
 26 27  2  0
 27 28  1  0
 28 29  2  0
 29 30  1  0
 30 31  2  0
 10  2  1  0
  8  4  2  0
 20 15  1  0
 31 21  1  0
 31 26  1  0
M  END
>  <pIC50>  (39) 
5.59

>  <ChEMBL_ID>  (39) 
CHEMBL115284

>  <document_journal>  (39) 
J. Med. Chem.

>  <bao_endpoint>  (39) 
BAO_0000190

>  <potential_duplicate>  (39) 
False

>  <uo_units>  (39) 
UO_0000065

>  <canonical_smiles>  (39) 
Clc1cc2OCOc2cc1COC(=O)N3CCC(CC3)N4C(=O)CNc5ccccc45

>  <parent_molecule_chembl_id>  (39) 
CHEMBL115284

>  <assay_type>  (39) 
B

>  <src_id>  (39) 
1

>  <ligand_efficiency>  (39) 
{u'le': u'0.25', u'bei': u'12.59', u'sei': u'6.95', u'lle': u'2.91'}

>  <standard_flag>  (39) 
True

>  <molecule_chembl_id>  (39) 
CHEMBL115284

>  <target_organism>  (39) 
Homo sapiens

>  <standard_units>  (39) 
nM

>  <record_id>  (39) 
215747

>  <document_chembl_id>  (39) 
CHEMBL1134447

>  <bao_format>  (39) 
BAO_0000357

>  <data_validity_description>  (39) 
None

>  <activity_id>  (39) 
119532

>  <standard_type>  (39) 
IC50

>  <target_chembl_id>  (39) 
CHEMBL233

>  <data_validity_comment>  (39) 
None

>  <published_value>  (39) 
2590

>  <document_year>  (39) 
2001

>  <target_pref_name>  (39) 
Mu opioid receptor

>  <assay_chembl_id>  (39) 
CHEMBL757060

>  <standard_relation>  (39) 
=

>  <assay_description>  (39) 
Binding affinity against mu-opiate receptor (human) using [3H]DAMGO radioligand

>  <published_relation>  (39) 
=

>  <standard_value>  (39) 
2590

>  <qudt_units>  (39) 
http://www.openphacts.org/units/Nanomolar

>  <target_tax_id>  (39) 
9606

>  <bao_label>  (39) 
single protein format

>  <published_units>  (39) 
nM

>  <pchembl_value>  (39) 
5.59

>  <published_type>  (39) 
IC50

>  <activity_comment>  (39) 
None

$$$$

     RDKit          

 33 36  0  0  0  0  0  0  0  0999 V2000
    0.0000    0.0000    0.0000 O   0  0  0  0  0  0  0  0  0  0  0  0
    0.0000    0.0000    0.0000 N   0  0  0  0  0  0  0  0  0  0  0  0
    0.0000    0.0000    0.0000 O   0  0  0  0  0  0  0  0  0  0  0  0
    0.0000    0.0000    0.0000 C   0  0  0  0  0  0  0  0  0  0  0  0
    0.0000    0.0000    0.0000 C   0  0  0  0  0  0  0  0  0  0  0  0
    0.0000    0.0000    0.0000 C   0  0  0  0  0  0  0  0  0  0  0  0
    0.0000    0.0000    0.0000 C   0  0  0  0  0  0  0  0  0  0  0  0
    0.0000    0.0000    0.0000 C   0  0  0  0  0  0  0  0  0  0  0  0
    0.0000    0.0000    0.0000 C   0  0  0  0  0  0  0  0  0  0  0  0
    0.0000    0.0000    0.0000 N   0  0  0  0  0  0  0  0  0  0  0  0
    0.0000    0.0000    0.0000 O   0  0  0  0  0  0  0  0  0  0  0  0
    0.0000    0.0000    0.0000 O   0  0  0  0  0  0  0  0  0  0  0  0
    0.0000    0.0000    0.0000 S   0  0  0  0  0  0  0  0  0  0  0  0
    0.0000    0.0000    0.0000 O   0  0  0  0  0  0  0  0  0  0  0  0
    0.0000    0.0000    0.0000 O   0  0  0  0  0  0  0  0  0  0  0  0
    0.0000    0.0000    0.0000 N   0  0  0  0  0  0  0  0  0  0  0  0
    0.0000    0.0000    0.0000 C   0  0  0  0  0  0  0  0  0  0  0  0
    0.0000    0.0000    0.0000 C   0  0  0  0  0  0  0  0  0  0  0  0
    0.0000    0.0000    0.0000 N   0  0  0  0  0  0  0  0  0  0  0  0
    0.0000    0.0000    0.0000 C   0  0  0  0  0  0  0  0  0  0  0  0
    0.0000    0.0000    0.0000 C   0  0  0  0  0  0  0  0  0  0  0  0
    0.0000    0.0000    0.0000 C   0  0  0  0  0  0  0  0  0  0  0  0
    0.0000    0.0000    0.0000 O   0  0  0  0  0  0  0  0  0  0  0  0
    0.0000    0.0000    0.0000 C   0  0  0  0  0  0  0  0  0  0  0  0
    0.0000    0.0000    0.0000 C   0  0  0  0  0  0  0  0  0  0  0  0
    0.0000    0.0000    0.0000 C   0  0  0  0  0  0  0  0  0  0  0  0
    0.0000    0.0000    0.0000 C   0  0  0  0  0  0  0  0  0  0  0  0
    0.0000    0.0000    0.0000 C   0  0  0  0  0  0  0  0  0  0  0  0
    0.0000    0.0000    0.0000 Cl  0  0  0  0  0  0  0  0  0  0  0  0
    0.0000    0.0000    0.0000 C   0  0  0  0  0  0  0  0  0  0  0  0
    0.0000    0.0000    0.0000 C   0  0  0  0  0  0  0  0  0  0  0  0
    0.0000    0.0000    0.0000 C   0  0  0  0  0  0  0  0  0  0  0  0
    0.0000    0.0000    0.0000 N   0  0  0  0  0  0  0  0  0  0  0  0
  1  2  1  0
  2  3  2  0
  2  4  1  0
  4  5  2  0
  5  6  1  0
  6  7  2  0
  7  8  1  0
  8  9  2  0
  8 10  1  0
 10 11  2  0
 10 12  1  0
  7 13  1  0
 13 14  2  0
 13 15  2  0
 13 16  1  0
 16 17  1  0
 17 18  1  0
 18 19  1  0
 19 20  1  0
 20 21  1  0
 19 22  1  0
 22 23  2  0
 22 24  1  0
 24 25  2  0
 25 26  1  0
 26 27  2  0
 27 28  1  0
 28 29  1  0
 28 30  2  0
 30 31  1  0
 31 32  2  0
 32 33  1  0
  9  4  1  0
 21 16  1  0
 33 24  1  0
 32 26  1  0
M  CHG  4   1  -1   2   1  10   1  12  -1
M  END
>  <pIC50>  (40) 
5.64

>  <ChEMBL_ID>  (40) 
CHEMBL325697

>  <document_journal>  (40) 
J. Med. Chem.

>  <bao_endpoint>  (40) 
BAO_0000190

>  <potential_duplicate>  (40) 
True

>  <uo_units>  (40) 
UO_0000065

>  <canonical_smiles>  (40) 
[O-][N+](=O)c1ccc(c(c1)[N+](=O)[O-])S(=O)(=O)N2CCN(CC2)C(=O)c3cc4cc(Cl)ccc4[nH]3

>  <parent_molecule_chembl_id>  (40) 
CHEMBL325697

>  <assay_type>  (40) 
B

>  <src_id>  (40) 
1

>  <ligand_efficiency>  (40) 
{u'le': u'0.23', u'bei': u'11.42', u'sei': u'3.25', u'lle': u'2.77'}

>  <standard_flag>  (40) 
True

>  <molecule_chembl_id>  (40) 
CHEMBL325697

>  <target_organism>  (40) 
Homo sapiens

>  <standard_units>  (40) 
nM

>  <record_id>  (40) 
215749

>  <document_chembl_id>  (40) 
CHEMBL1134447

>  <bao_format>  (40) 
BAO_0000357

>  <data_validity_description>  (40) 
None

>  <activity_id>  (40) 
119537

>  <standard_type>  (40) 
IC50

>  <target_chembl_id>  (40) 
CHEMBL233

>  <data_validity_comment>  (40) 
None

>  <published_value>  (40) 
2285

>  <document_year>  (40) 
2001

>  <target_pref_name>  (40) 
Mu opioid receptor

>  <assay_chembl_id>  (40) 
CHEMBL757060

>  <standard_relation>  (40) 
=

>  <assay_description>  (40) 
Binding affinity against mu-opiate receptor (human) using [3H]DAMGO radioligand

>  <published_relation>  (40) 
=

>  <standard_value>  (40) 
2285

>  <qudt_units>  (40) 
http://www.openphacts.org/units/Nanomolar

>  <target_tax_id>  (40) 
9606

>  <bao_label>  (40) 
single protein format

>  <published_units>  (40) 
nM

>  <pchembl_value>  (40) 
5.64

>  <published_type>  (40) 
IC50

>  <activity_comment>  (40) 
None

$$$$

     RDKit          

 27 31  0  0  0  0  0  0  0  0999 V2000
    0.0000    0.0000    0.0000 O   0  0  0  0  0  0  0  0  0  0  0  0
    0.0000    0.0000    0.0000 C   0  0  0  0  0  0  0  0  0  0  0  0
    0.0000    0.0000    0.0000 N   0  0  0  0  0  0  0  0  0  0  0  0
    0.0000    0.0000    0.0000 C   0  0  0  0  0  0  0  0  0  0  0  0
    0.0000    0.0000    0.0000 N   0  0  0  0  0  0  0  0  0  0  0  0
    0.0000    0.0000    0.0000 C   0  0  0  0  0  0  0  0  0  0  0  0
    0.0000    0.0000    0.0000 C   0  0  0  0  0  0  0  0  0  0  0  0
    0.0000    0.0000    0.0000 C   0  0  0  0  0  0  0  0  0  0  0  0
    0.0000    0.0000    0.0000 C   0  0  0  0  0  0  0  0  0  0  0  0
    0.0000    0.0000    0.0000 C   0  0  0  0  0  0  0  0  0  0  0  0
    0.0000    0.0000    0.0000 C   0  0  0  0  0  0  0  0  0  0  0  0
    0.0000    0.0000    0.0000 C   0  0  0  0  0  0  0  0  0  0  0  0
    0.0000    0.0000    0.0000 C   0  0  0  0  0  0  0  0  0  0  0  0
    0.0000    0.0000    0.0000 C   0  0  0  0  0  0  0  0  0  0  0  0
    0.0000    0.0000    0.0000 N   0  0  0  0  0  0  0  0  0  0  0  0
    0.0000    0.0000    0.0000 C   0  0  0  0  0  0  0  0  0  0  0  0
    0.0000    0.0000    0.0000 C   0  0  0  0  0  0  0  0  0  0  0  0
    0.0000    0.0000    0.0000 C   0  0  0  0  0  0  0  0  0  0  0  0
    0.0000    0.0000    0.0000 C   0  0  0  0  0  0  0  0  0  0  0  0
    0.0000    0.0000    0.0000 C   0  0  0  0  0  0  0  0  0  0  0  0
    0.0000    0.0000    0.0000 N   0  0  0  0  0  0  0  0  0  0  0  0
    0.0000    0.0000    0.0000 S   0  0  0  0  0  0  0  0  0  0  0  0
    0.0000    0.0000    0.0000 N   0  0  0  0  0  0  0  0  0  0  0  0
    0.0000    0.0000    0.0000 C   0  0  0  0  0  0  0  0  0  0  0  0
    0.0000    0.0000    0.0000 C   0  0  0  0  0  0  0  0  0  0  0  0
    0.0000    0.0000    0.0000 C   0  0  0  0  0  0  0  0  0  0  0  0
    0.0000    0.0000    0.0000 C   0  0  0  0  0  0  0  0  0  0  0  0
  1  2  2  0
  2  3  1  0
  3  4  1  0
  4  5  1  0
  5  6  1  0
  6  7  2  0
  7  8  1  0
  8  9  2  0
  9 10  1  0
 10 11  2  0
  5 12  1  0
 12 13  1  0
 13 14  1  0
 14 15  1  0
 15 16  1  0
 16 17  1  0
 17 18  1  0
 18 19  2  0
 19 20  1  0
 20 21  2  0
 21 22  1  0
 22 23  1  0
 23 24  2  0
 24 25  1  0
 15 26  1  0
 26 27  1  0
 12  2  1  0
 11  6  1  0
 27 12  1  0
 25 17  2  0
 24 20  1  0
M  END
>  <pIC50>  (41) 
7.565

>  <ChEMBL_ID>  (41) 
CHEMBL325750

>  <document_journal>  (41) 
J. Med. Chem.

>  <bao_endpoint>  (41) 
BAO_0000190

>  <potential_duplicate>  (41) 
False

>  <uo_units>  (41) 
UO_0000065

>  <canonical_smiles>  (41) 
O=C1NCN(c2ccccc2)C13CCN(Cc4ccc5nsnc5c4)CC3

>  <parent_molecule_chembl_id>  (41) 
CHEMBL325750

>  <assay_type>  (41) 
B

>  <src_id>  (41) 
1

>  <ligand_efficiency>  (41) 
{u'le': u'0.38', u'bei': u'20.04', u'sei': u'8.49', u'lle': u'4.86'}

>  <standard_flag>  (41) 
True

>  <molecule_chembl_id>  (41) 
CHEMBL325750

>  <target_organism>  (41) 
Homo sapiens

>  <standard_units>  (41) 
nM

>  <record_id>  (41) 
215762

>  <document_chembl_id>  (41) 
CHEMBL1134447

>  <bao_format>  (41) 
BAO_0000357

>  <data_validity_description>  (41) 
None

>  <activity_id>  (41) 
120862

>  <standard_type>  (41) 
IC50

>  <target_chembl_id>  (41) 
CHEMBL233

>  <data_validity_comment>  (41) 
None

>  <published_value>  (41) 
24.9

>  <document_year>  (41) 
2001

>  <target_pref_name>  (41) 
Mu opioid receptor

>  <assay_chembl_id>  (41) 
CHEMBL757060

>  <standard_relation>  (41) 
=

>  <assay_description>  (41) 
Binding affinity against mu-opiate receptor (human) using [3H]DAMGO radioligand

>  <published_relation>  (41) 
=

>  <standard_value>  (41) 
24.9

>  <qudt_units>  (41) 
http://www.openphacts.org/units/Nanomolar

>  <target_tax_id>  (41) 
9606

>  <bao_label>  (41) 
single protein format

>  <published_units>  (41) 
nM

>  <pchembl_value>  (41) 
7.6

>  <published_type>  (41) 
IC50

>  <activity_comment>  (41) 
None

$$$$

     RDKit          

 34 40  0  0  0  0  0  0  0  0999 V2000
    0.0000    0.0000    0.0000 C   0  0  0  0  0  0  0  0  0  0  0  0
    0.0000    0.0000    0.0000 O   0  0  0  0  0  0  0  0  0  0  0  0
    0.0000    0.0000    0.0000 C   0  0  0  0  0  0  0  0  0  0  0  0
    0.0000    0.0000    0.0000 C   0  0  0  0  0  0  0  0  0  0  0  0
    0.0000    0.0000    0.0000 C   0  0  0  0  0  0  0  0  0  0  0  0
    0.0000    0.0000    0.0000 C   0  0  0  0  0  0  0  0  0  0  0  0
    0.0000    0.0000    0.0000 C   0  0  0  0  0  0  0  0  0  0  0  0
    0.0000    0.0000    0.0000 C   0  0  0  0  0  0  0  0  0  0  0  0
    0.0000    0.0000    0.0000 C   0  0  0  0  0  0  0  0  0  0  0  0
    0.0000    0.0000    0.0000 C   0  0  0  0  0  0  0  0  0  0  0  0
    0.0000    0.0000    0.0000 O   0  0  0  0  0  0  0  0  0  0  0  0
    0.0000    0.0000    0.0000 C   0  0  0  0  0  0  0  0  0  0  0  0
    0.0000    0.0000    0.0000 C   0  0  0  0  0  0  0  0  0  0  0  0
    0.0000    0.0000    0.0000 C   0  0  0  0  0  0  0  0  0  0  0  0
    0.0000    0.0000    0.0000 C   0  0  0  0  0  0  0  0  0  0  0  0
    0.0000    0.0000    0.0000 C   0  0  0  0  0  0  0  0  0  0  0  0
    0.0000    0.0000    0.0000 C   0  0  0  0  0  0  0  0  0  0  0  0
    0.0000    0.0000    0.0000 C   0  0  0  0  0  0  0  0  0  0  0  0
    0.0000    0.0000    0.0000 C   0  0  0  0  0  0  0  0  0  0  0  0
    0.0000    0.0000    0.0000 C   0  0  0  0  0  0  0  0  0  0  0  0
    0.0000    0.0000    0.0000 C   0  0  0  0  0  0  0  0  0  0  0  0
    0.0000    0.0000    0.0000 O   0  0  0  0  0  0  0  0  0  0  0  0
    0.0000    0.0000    0.0000 C   0  0  0  0  0  0  0  0  0  0  0  0
    0.0000    0.0000    0.0000 O   0  0  0  0  0  0  0  0  0  0  0  0
    0.0000    0.0000    0.0000 C   0  0  0  0  0  0  0  0  0  0  0  0
    0.0000    0.0000    0.0000 C   0  0  0  0  0  0  0  0  0  0  0  0
    0.0000    0.0000    0.0000 C   0  0  0  0  0  0  0  0  0  0  0  0
    0.0000    0.0000    0.0000 C   0  0  0  0  0  0  0  0  0  0  0  0
    0.0000    0.0000    0.0000 N   0  0  0  0  0  0  0  0  0  0  0  0
    0.0000    0.0000    0.0000 C   0  0  0  0  0  0  0  0  0  0  0  0
    0.0000    0.0000    0.0000 C   0  0  0  0  0  0  0  0  0  0  0  0
    0.0000    0.0000    0.0000 C   0  0  0  0  0  0  0  0  0  0  0  0
    0.0000    0.0000    0.0000 C   0  0  0  0  0  0  0  0  0  0  0  0
    0.0000    0.0000    0.0000 C   0  0  0  0  0  0  0  0  0  0  0  0
  1  2  1  0
  2  3  1  0
  3  4  1  0
  4  5  1  0
  5  6  1  0
  6  7  1  0
  7  8  1  0
  8  9  1  0
  9 10  1  0
  9 11  1  0
  9 12  1  0
 12 13  1  0
 12 14  1  0
 12 15  1  0
  6 16  1  0
 16 17  1  0
 17 18  1  0
 18 19  1  0
 19 20  2  0
 20 21  1  0
 21 22  1  0
 21 23  2  0
 23 24  1  0
 24 25  1  0
 25 26  1  0
 26 27  1  0
 27 28  1  0
 28 29  1  0
 29 30  1  0
 30 31  1  0
 31 32  1  0
 32 33  1  0
 26 34  1  0
  8  3  1  0
 25  3  1  0
 26  6  1  0
 29 16  1  0
 34 18  2  0
 34 23  1  0
 33 31  1  0
M  END
>  <pIC50>  (42) 
8.77

>  <ChEMBL_ID>  (42) 
CHEMBL1200401

>  <document_journal>  (42) 
J. Med. Chem.

>  <bao_endpoint>  (42) 
BAO_0000190

>  <potential_duplicate>  (42) 
False

>  <uo_units>  (42) 
UO_0000065

>  <canonical_smiles>  (42) 
Cl.CO[C@]12CC[C@@]3(C[C@@H]1[C@](C)(O)C(C)(C)C)[C@H]4Cc5ccc(O)c6O[C@@H]2[C@]3(CCN4CC7CC7)c56

>  <parent_molecule_chembl_id>  (42) 
CHEMBL560511

>  <assay_type>  (42) 
B

>  <src_id>  (42) 
1

>  <ligand_efficiency>  (42) 
{u'le': u'0.35', u'bei': u'18.75', u'sei': u'14.11', u'lle': u'4.85'}

>  <standard_flag>  (42) 
True

>  <molecule_chembl_id>  (42) 
CHEMBL1200401

>  <target_organism>  (42) 
Homo sapiens

>  <standard_units>  (42) 
nM

>  <record_id>  (42) 
215772

>  <document_chembl_id>  (42) 
CHEMBL1134447

>  <bao_format>  (42) 
BAO_0000357

>  <data_validity_description>  (42) 
None

>  <activity_id>  (42) 
122041

>  <standard_type>  (42) 
IC50

>  <target_chembl_id>  (42) 
CHEMBL233

>  <data_validity_comment>  (42) 
None

>  <published_value>  (42) 
1.7

>  <document_year>  (42) 
2001

>  <target_pref_name>  (42) 
Mu opioid receptor

>  <assay_chembl_id>  (42) 
CHEMBL757060

>  <standard_relation>  (42) 
=

>  <assay_description>  (42) 
Binding affinity against mu-opiate receptor (human) using [3H]DAMGO radioligand

>  <published_relation>  (42) 
=

>  <standard_value>  (42) 
1.7

>  <qudt_units>  (42) 
http://www.openphacts.org/units/Nanomolar

>  <target_tax_id>  (42) 
9606

>  <bao_label>  (42) 
single protein format

>  <published_units>  (42) 
nM

>  <pchembl_value>  (42) 
8.77

>  <published_type>  (42) 
IC50

>  <activity_comment>  (42) 
None

$$$$

     RDKit          

 35 39  0  0  0  0  0  0  0  0999 V2000
    0.0000    0.0000    0.0000 O   0  0  0  0  0  0  0  0  0  0  0  0
    0.0000    0.0000    0.0000 C   0  0  0  0  0  0  0  0  0  0  0  0
    0.0000    0.0000    0.0000 O   0  0  0  0  0  0  0  0  0  0  0  0
    0.0000    0.0000    0.0000 C   0  0  0  0  0  0  0  0  0  0  0  0
    0.0000    0.0000    0.0000 N   0  0  0  0  0  0  0  0  0  0  0  0
    0.0000    0.0000    0.0000 C   0  0  0  0  0  0  0  0  0  0  0  0
    0.0000    0.0000    0.0000 N   0  0  0  0  0  0  0  0  0  0  0  0
    0.0000    0.0000    0.0000 C   0  0  0  0  0  0  0  0  0  0  0  0
    0.0000    0.0000    0.0000 C   0  0  0  0  0  0  0  0  0  0  0  0
    0.0000    0.0000    0.0000 C   0  0  0  0  0  0  0  0  0  0  0  0
    0.0000    0.0000    0.0000 C   0  0  0  0  0  0  0  0  0  0  0  0
    0.0000    0.0000    0.0000 C   0  0  0  0  0  0  0  0  0  0  0  0
    0.0000    0.0000    0.0000 C   0  0  0  0  0  0  0  0  0  0  0  0
    0.0000    0.0000    0.0000 C   0  0  0  0  0  0  0  0  0  0  0  0
    0.0000    0.0000    0.0000 C   0  0  0  0  0  0  0  0  0  0  0  0
    0.0000    0.0000    0.0000 C   0  0  0  0  0  0  0  0  0  0  0  0
    0.0000    0.0000    0.0000 N   0  0  0  0  0  0  0  0  0  0  0  0
    0.0000    0.0000    0.0000 C   0  0  0  0  0  0  0  0  0  0  0  0
    0.0000    0.0000    0.0000 C   0  0  0  0  0  0  0  0  0  0  0  0
    0.0000    0.0000    0.0000 C   0  0  0  0  0  0  0  0  0  0  0  0
    0.0000    0.0000    0.0000 O   0  0  0  0  0  0  0  0  0  0  0  0
    0.0000    0.0000    0.0000 O   0  0  0  0  0  0  0  0  0  0  0  0
    0.0000    0.0000    0.0000 C   0  0  0  0  0  0  0  0  0  0  0  0
    0.0000    0.0000    0.0000 C   0  0  0  0  0  0  0  0  0  0  0  0
    0.0000    0.0000    0.0000 C   0  0  0  0  0  0  0  0  0  0  0  0
    0.0000    0.0000    0.0000 C   0  0  0  0  0  0  0  0  0  0  0  0
    0.0000    0.0000    0.0000 O   0  0  0  0  0  0  0  0  0  0  0  0
    0.0000    0.0000    0.0000 C   0  0  0  0  0  0  0  0  0  0  0  0
    0.0000    0.0000    0.0000 O   0  0  0  0  0  0  0  0  0  0  0  0
    0.0000    0.0000    0.0000 C   0  0  0  0  0  0  0  0  0  0  0  0
    0.0000    0.0000    0.0000 C   0  0  0  0  0  0  0  0  0  0  0  0
    0.0000    0.0000    0.0000 C   0  0  0  0  0  0  0  0  0  0  0  0
    0.0000    0.0000    0.0000 Cl  0  0  0  0  0  0  0  0  0  0  0  0
    0.0000    0.0000    0.0000 C   0  0  0  0  0  0  0  0  0  0  0  0
    0.0000    0.0000    0.0000 O   0  0  0  0  0  0  0  0  0  0  0  0
  1  2  1  0
  2  3  2  0
  2  4  1  0
  4  5  1  0
  5  6  1  0
  6  7  1  0
  7  8  1  0
  8  9  2  0
  9 10  1  0
 10 11  2  0
 11 12  1  0
 12 13  2  0
  7 14  1  0
 14 15  1  0
 15 16  1  0
 16 17  1  0
 17 18  1  0
 18 19  1  0
 17 20  1  0
 20 21  2  0
 20 22  1  0
 22 23  1  0
 23 24  1  0
 24 25  2  0
 25 26  1  0
 26 27  1  0
 27 28  1  0
 28 29  1  0
 29 30  1  0
 30 31  1  0
 31 32  2  0
 32 33  1  0
 14 34  1  0
 34 35  2  0
 34  5  1  0
 13  8  1  0
 19 14  1  0
 32 24  1  0
 30 26  2  0
M  END
>  <pIC50>  (43) 
6.13

>  <ChEMBL_ID>  (43) 
CHEMBL111918

>  <document_journal>  (43) 
J. Med. Chem.

>  <bao_endpoint>  (43) 
BAO_0000190

>  <potential_duplicate>  (43) 
False

>  <uo_units>  (43) 
UO_0000065

>  <canonical_smiles>  (43) 
OC(=O)CN1CN(c2ccccc2)C3(CCN(CC3)C(=O)OCc4cc5OCOc5cc4Cl)C1=O

>  <parent_molecule_chembl_id>  (43) 
CHEMBL111918

>  <assay_type>  (43) 
B

>  <src_id>  (43) 
1

>  <ligand_efficiency>  (43) 
{u'le': u'0.24', u'bei': u'12.22', u'sei': u'5.64', u'lle': u'3.49'}

>  <standard_flag>  (43) 
True

>  <molecule_chembl_id>  (43) 
CHEMBL111918

>  <target_organism>  (43) 
Homo sapiens

>  <standard_units>  (43) 
nM

>  <record_id>  (43) 
215760

>  <document_chembl_id>  (43) 
CHEMBL1134447

>  <bao_format>  (43) 
BAO_0000357

>  <data_validity_description>  (43) 
None

>  <activity_id>  (43) 
123340

>  <standard_type>  (43) 
IC50

>  <target_chembl_id>  (43) 
CHEMBL233

>  <data_validity_comment>  (43) 
None

>  <published_value>  (43) 
735

>  <document_year>  (43) 
2001

>  <target_pref_name>  (43) 
Mu opioid receptor

>  <assay_chembl_id>  (43) 
CHEMBL757060

>  <standard_relation>  (43) 
=

>  <assay_description>  (43) 
Binding affinity against mu-opiate receptor (human) using [3H]DAMGO radioligand

>  <published_relation>  (43) 
=

>  <standard_value>  (43) 
735

>  <qudt_units>  (43) 
http://www.openphacts.org/units/Nanomolar

>  <target_tax_id>  (43) 
9606

>  <bao_label>  (43) 
single protein format

>  <published_units>  (43) 
nM

>  <pchembl_value>  (43) 
6.13

>  <published_type>  (43) 
IC50

>  <activity_comment>  (43) 
None

$$$$

     RDKit          

 27 31  0  0  0  0  0  0  0  0999 V2000
    0.0000    0.0000    0.0000 O   0  0  0  0  0  0  0  0  0  0  0  0
    0.0000    0.0000    0.0000 C   0  0  0  0  0  0  0  0  0  0  0  0
    0.0000    0.0000    0.0000 N   0  0  0  0  0  0  0  0  0  0  0  0
    0.0000    0.0000    0.0000 N   0  0  0  0  0  0  0  0  0  0  0  0
    0.0000    0.0000    0.0000 C   0  0  0  0  0  0  0  0  0  0  0  0
    0.0000    0.0000    0.0000 C   0  0  0  0  0  0  0  0  0  0  0  0
    0.0000    0.0000    0.0000 C   0  0  0  0  0  0  0  0  0  0  0  0
    0.0000    0.0000    0.0000 C   0  0  0  0  0  0  0  0  0  0  0  0
    0.0000    0.0000    0.0000 C   0  0  0  0  0  0  0  0  0  0  0  0
    0.0000    0.0000    0.0000 C   0  0  0  0  0  0  0  0  0  0  0  0
    0.0000    0.0000    0.0000 C   0  0  0  0  0  0  0  0  0  0  0  0
    0.0000    0.0000    0.0000 C   0  0  0  0  0  0  0  0  0  0  0  0
    0.0000    0.0000    0.0000 C   0  0  0  0  0  0  0  0  0  0  0  0
    0.0000    0.0000    0.0000 C   0  0  0  0  0  0  0  0  0  0  0  0
    0.0000    0.0000    0.0000 C   0  0  0  0  0  0  0  0  0  0  0  0
    0.0000    0.0000    0.0000 N   0  0  0  0  0  0  0  0  0  0  0  0
    0.0000    0.0000    0.0000 C   0  0  0  0  0  0  0  0  0  0  0  0
    0.0000    0.0000    0.0000 C   0  0  0  0  0  0  0  0  0  0  0  0
    0.0000    0.0000    0.0000 C   0  0  0  0  0  0  0  0  0  0  0  0
    0.0000    0.0000    0.0000 C   0  0  0  0  0  0  0  0  0  0  0  0
    0.0000    0.0000    0.0000 C   0  0  0  0  0  0  0  0  0  0  0  0
    0.0000    0.0000    0.0000 C   0  0  0  0  0  0  0  0  0  0  0  0
    0.0000    0.0000    0.0000 Cl  0  0  0  0  0  0  0  0  0  0  0  0
    0.0000    0.0000    0.0000 O   0  0  0  0  0  0  0  0  0  0  0  0
    0.0000    0.0000    0.0000 C   0  0  0  0  0  0  0  0  0  0  0  0
    0.0000    0.0000    0.0000 C   0  0  0  0  0  0  0  0  0  0  0  0
    0.0000    0.0000    0.0000 O   0  0  0  0  0  0  0  0  0  0  0  0
  1  2  2  0
  2  3  1  0
  4  2  1  0
  5  4  1  0
  4  6  1  0
  7  5  1  0
  5  8  2  0
  6  9  1  0
 10  6  1  0
 11  7  2  0
  3  8  1  0
  8 12  1  0
  9 13  1  0
 14 10  1  0
 15 11  1  0
 12 15  2  0
 13 16  1  0
 16 14  1  0
 16 17  1  0
 17 18  1  0
 18 19  2  0
 20 18  1  0
 19 21  1  0
 22 20  2  0
 20 23  1  0
 21 24  1  0
 25 21  2  0
 25 22  1  0
 24 26  1  0
 27 25  1  0
 26 27  1  0
M  END
>  <pIC50>  (44) 
8.92

>  <ChEMBL_ID>  (44) 
CHEMBL114379

>  <document_journal>  (44) 
J. Med. Chem.

>  <bao_endpoint>  (44) 
BAO_0000190

>  <potential_duplicate>  (44) 
False

>  <uo_units>  (44) 
UO_0000065

>  <canonical_smiles>  (44) 
Oc1nc2ccccc2n1C3CCN(Cc4cc5OCOc5cc4Cl)CC3

>  <parent_molecule_chembl_id>  (44) 
CHEMBL114379

>  <assay_type>  (44) 
B

>  <src_id>  (44) 
1

>  <ligand_efficiency>  (44) 
{u'le': u'0.45', u'bei': u'23.12', u'sei': u'14.93', u'lle': u'4.94'}

>  <standard_flag>  (44) 
True

>  <molecule_chembl_id>  (44) 
CHEMBL114379

>  <target_organism>  (44) 
Homo sapiens

>  <standard_units>  (44) 
nM

>  <record_id>  (44) 
215743

>  <document_chembl_id>  (44) 
CHEMBL1134447

>  <bao_format>  (44) 
BAO_0000357

>  <data_validity_description>  (44) 
None

>  <activity_id>  (44) 
125895

>  <standard_type>  (44) 
IC50

>  <target_chembl_id>  (44) 
CHEMBL233

>  <data_validity_comment>  (44) 
None

>  <published_value>  (44) 
1.2

>  <document_year>  (44) 
2001

>  <target_pref_name>  (44) 
Mu opioid receptor

>  <assay_chembl_id>  (44) 
CHEMBL757060

>  <standard_relation>  (44) 
=

>  <assay_description>  (44) 
Binding affinity against mu-opiate receptor (human) using [3H]DAMGO radioligand

>  <published_relation>  (44) 
=

>  <standard_value>  (44) 
1.2

>  <qudt_units>  (44) 
http://www.openphacts.org/units/Nanomolar

>  <target_tax_id>  (44) 
9606

>  <bao_label>  (44) 
single protein format

>  <published_units>  (44) 
nM

>  <pchembl_value>  (44) 
8.92

>  <published_type>  (44) 
IC50

>  <activity_comment>  (44) 
None

$$$$

     RDKit          

 35 38  0  0  0  0  0  0  0  0999 V2000
    0.0000    0.0000    0.0000 C   0  0  0  0  0  0  0  0  0  0  0  0
    0.0000    0.0000    0.0000 O   0  0  0  0  0  0  0  0  0  0  0  0
    0.0000    0.0000    0.0000 C   0  0  0  0  0  0  0  0  0  0  0  0
    0.0000    0.0000    0.0000 O   0  0  0  0  0  0  0  0  0  0  0  0
    0.0000    0.0000    0.0000 C   0  0  0  0  0  0  0  0  0  0  0  0
    0.0000    0.0000    0.0000 C   0  0  0  0  0  0  0  0  0  0  0  0
    0.0000    0.0000    0.0000 S   0  0  0  0  0  0  0  0  0  0  0  0
    0.0000    0.0000    0.0000 C   0  0  0  0  0  0  0  0  0  0  0  0
    0.0000    0.0000    0.0000 C   0  0  0  0  0  0  0  0  0  0  0  0
    0.0000    0.0000    0.0000 O   0  0  0  0  0  0  0  0  0  0  0  0
    0.0000    0.0000    0.0000 C   0  0  0  0  0  0  0  0  0  0  0  0
    0.0000    0.0000    0.0000 S   0  0  0  0  0  0  0  0  0  0  0  0
    0.0000    0.0000    0.0000 O   0  0  0  0  0  0  0  0  0  0  0  0
    0.0000    0.0000    0.0000 O   0  0  0  0  0  0  0  0  0  0  0  0
    0.0000    0.0000    0.0000 N   0  0  0  0  0  0  0  0  0  0  0  0
    0.0000    0.0000    0.0000 C   0  0  0  0  0  0  0  0  0  0  0  0
    0.0000    0.0000    0.0000 C   0  0  0  0  0  0  0  0  0  0  0  0
    0.0000    0.0000    0.0000 N   0  0  0  0  0  0  0  0  0  0  0  0
    0.0000    0.0000    0.0000 C   0  0  0  0  0  0  0  0  0  0  0  0
    0.0000    0.0000    0.0000 C   0  0  0  0  0  0  0  0  0  0  0  0
    0.0000    0.0000    0.0000 C   0  0  0  0  0  0  0  0  0  0  0  0
    0.0000    0.0000    0.0000 O   0  0  0  0  0  0  0  0  0  0  0  0
    0.0000    0.0000    0.0000 C   0  0  0  0  0  0  0  0  0  0  0  0
    0.0000    0.0000    0.0000 C   0  0  0  0  0  0  0  0  0  0  0  0
    0.0000    0.0000    0.0000 C   0  0  0  0  0  0  0  0  0  0  0  0
    0.0000    0.0000    0.0000 C   0  0  0  0  0  0  0  0  0  0  0  0
    0.0000    0.0000    0.0000 C   0  0  0  0  0  0  0  0  0  0  0  0
    0.0000    0.0000    0.0000 C   0  0  0  0  0  0  0  0  0  0  0  0
    0.0000    0.0000    0.0000 N   0  0  0  0  0  0  0  0  0  0  0  0
    0.0000    0.0000    0.0000 C   0  0  0  0  0  0  0  0  0  0  0  0
    0.0000    0.0000    0.0000 C   0  0  0  0  0  0  0  0  0  0  0  0
    0.0000    0.0000    0.0000 C   0  0  0  0  0  0  0  0  0  0  0  0
    0.0000    0.0000    0.0000 C   0  0  0  0  0  0  0  0  0  0  0  0
    0.0000    0.0000    0.0000 C   0  0  0  0  0  0  0  0  0  0  0  0
    0.0000    0.0000    0.0000 C   0  0  0  0  0  0  0  0  0  0  0  0
  1  2  1  0
  2  3  1  0
  3  4  2  0
  3  5  1  0
  5  6  2  0
  6  7  1  0
  7  8  1  0
  8  9  2  0
  9 10  1  0
 10 11  1  0
  8 12  1  0
 12 13  2  0
 12 14  2  0
 12 15  1  0
 15 16  1  0
 16 17  1  0
 17 18  1  0
 18 19  1  0
 19 20  1  0
 18 21  1  0
 21 22  2  0
 21 23  1  0
 23 24  2  0
 24 25  1  0
 25 26  2  0
 26 27  1  0
 27 28  2  0
 28 29  1  0
 29 30  1  0
 30 31  2  0
 31 32  1  0
 32 33  2  0
 33 34  1  0
 34 35  2  0
  9  5  1  0
 20 15  1  0
 28 23  1  0
 35 30  1  0
M  END
>  <pIC50>  (45) 
5.31

>  <ChEMBL_ID>  (45) 
CHEMBL324479

>  <document_journal>  (45) 
J. Med. Chem.

>  <bao_endpoint>  (45) 
BAO_0000190

>  <potential_duplicate>  (45) 
True

>  <uo_units>  (45) 
UO_0000065

>  <canonical_smiles>  (45) 
COC(=O)c1csc(c1OC)S(=O)(=O)N2CCN(CC2)C(=O)c3ccccc3Nc4ccccc4

>  <parent_molecule_chembl_id>  (45) 
CHEMBL324479

>  <assay_type>  (45) 
B

>  <src_id>  (45) 
1

>  <ligand_efficiency>  (45) 
{u'le': u'0.21', u'bei': u'10.29', u'sei': u'3.74', u'lle': u'2.3'}

>  <standard_flag>  (45) 
True

>  <molecule_chembl_id>  (45) 
CHEMBL324479

>  <target_organism>  (45) 
Homo sapiens

>  <standard_units>  (45) 
nM

>  <record_id>  (45) 
215751

>  <document_chembl_id>  (45) 
CHEMBL1134447

>  <bao_format>  (45) 
BAO_0000357

>  <data_validity_description>  (45) 
None

>  <activity_id>  (45) 
125900

>  <standard_type>  (45) 
IC50

>  <target_chembl_id>  (45) 
CHEMBL233

>  <data_validity_comment>  (45) 
None

>  <published_value>  (45) 
4955

>  <document_year>  (45) 
2001

>  <target_pref_name>  (45) 
Mu opioid receptor

>  <assay_chembl_id>  (45) 
CHEMBL757060

>  <standard_relation>  (45) 
=

>  <assay_description>  (45) 
Binding affinity against mu-opiate receptor (human) using [3H]DAMGO radioligand

>  <published_relation>  (45) 
=

>  <standard_value>  (45) 
4955

>  <qudt_units>  (45) 
http://www.openphacts.org/units/Nanomolar

>  <target_tax_id>  (45) 
9606

>  <bao_label>  (45) 
single protein format

>  <published_units>  (45) 
nM

>  <pchembl_value>  (45) 
5.31

>  <published_type>  (45) 
IC50

>  <activity_comment>  (45) 
None

$$$$

     RDKit          

 18 19  0  0  0  0  0  0  0  0999 V2000
    0.0000    0.0000    0.0000 C   0  0  0  0  0  0  0  0  0  0  0  0
    0.0000    0.0000    0.0000 C   0  0  0  0  0  0  0  0  0  0  0  0
    0.0000    0.0000    0.0000 O   0  0  0  0  0  0  0  0  0  0  0  0
    0.0000    0.0000    0.0000 C   0  0  0  0  0  0  0  0  0  0  0  0
    0.0000    0.0000    0.0000 O   0  0  0  0  0  0  0  0  0  0  0  0
    0.0000    0.0000    0.0000 C   0  0  0  0  0  0  0  0  0  0  0  0
    0.0000    0.0000    0.0000 C   0  0  0  0  0  0  0  0  0  0  0  0
    0.0000    0.0000    0.0000 C   0  0  0  0  0  0  0  0  0  0  0  0
    0.0000    0.0000    0.0000 N   0  0  0  0  0  0  0  0  0  0  0  0
    0.0000    0.0000    0.0000 C   0  0  0  0  0  0  0  0  0  0  0  0
    0.0000    0.0000    0.0000 C   0  0  0  0  0  0  0  0  0  0  0  0
    0.0000    0.0000    0.0000 C   0  0  0  0  0  0  0  0  0  0  0  0
    0.0000    0.0000    0.0000 C   0  0  0  0  0  0  0  0  0  0  0  0
    0.0000    0.0000    0.0000 C   0  0  0  0  0  0  0  0  0  0  0  0
    0.0000    0.0000    0.0000 C   0  0  0  0  0  0  0  0  0  0  0  0
    0.0000    0.0000    0.0000 C   0  0  0  0  0  0  0  0  0  0  0  0
    0.0000    0.0000    0.0000 C   0  0  0  0  0  0  0  0  0  0  0  0
    0.0000    0.0000    0.0000 C   0  0  0  0  0  0  0  0  0  0  0  0
  1  2  1  0
  2  3  1  0
  3  4  1  0
  4  5  2  0
  4  6  1  0
  6  7  1  0
  7  8  1  0
  8  9  1  0
  9 10  1  0
  9 11  1  0
 11 12  1  0
  6 13  1  0
 13 14  2  0
 14 15  1  0
 15 16  2  0
 16 17  1  0
 17 18  2  0
 12  6  1  0
 18 13  1  0
M  END
>  <pIC50>  (46) 
6.5

>  <ChEMBL_ID>  (46) 
CHEMBL607

>  <document_journal>  (46) 
J. Med. Chem.

>  <bao_endpoint>  (46) 
BAO_0000190

>  <potential_duplicate>  (46) 
False

>  <uo_units>  (46) 
UO_0000065

>  <canonical_smiles>  (46) 
CCOC(=O)C1(CCN(C)CC1)c2ccccc2

>  <parent_molecule_chembl_id>  (46) 
CHEMBL607

>  <assay_type>  (46) 
B

>  <src_id>  (46) 
1

>  <ligand_efficiency>  (46) 
{u'le': u'0.49', u'bei': u'26.29', u'sei': u'22.01', u'lle': u'4.05'}

>  <standard_flag>  (46) 
True

>  <molecule_chembl_id>  (46) 
CHEMBL607

>  <target_organism>  (46) 
Homo sapiens

>  <standard_units>  (46) 
nM

>  <record_id>  (46) 
215770

>  <document_chembl_id>  (46) 
CHEMBL1134447

>  <bao_format>  (46) 
BAO_0000357

>  <data_validity_description>  (46) 
None

>  <activity_id>  (46) 
125905

>  <standard_type>  (46) 
IC50

>  <target_chembl_id>  (46) 
CHEMBL233

>  <data_validity_comment>  (46) 
None

>  <published_value>  (46) 
315

>  <document_year>  (46) 
2001

>  <target_pref_name>  (46) 
Mu opioid receptor

>  <assay_chembl_id>  (46) 
CHEMBL757060

>  <standard_relation>  (46) 
=

>  <assay_description>  (46) 
Binding affinity against mu-opiate receptor (human) using [3H]DAMGO radioligand

>  <published_relation>  (46) 
=

>  <standard_value>  (46) 
315

>  <qudt_units>  (46) 
http://www.openphacts.org/units/Nanomolar

>  <target_tax_id>  (46) 
9606

>  <bao_label>  (46) 
single protein format

>  <published_units>  (46) 
nM

>  <pchembl_value>  (46) 
6.5

>  <published_type>  (46) 
IC50

>  <activity_comment>  (46) 
None

$$$$

     RDKit          

 23 24  0  0  0  0  0  0  0  0999 V2000
    0.0000    0.0000    0.0000 C   0  0  0  0  0  0  0  0  0  0  0  0
    0.0000    0.0000    0.0000 C   0  0  0  0  0  0  0  0  0  0  0  0
    0.0000    0.0000    0.0000 C   0  0  0  0  0  0  0  0  0  0  0  0
    0.0000    0.0000    0.0000 O   0  0  0  0  0  0  0  0  0  0  0  0
    0.0000    0.0000    0.0000 C   0  0  0  0  0  0  0  0  0  0  0  0
    0.0000    0.0000    0.0000 C   0  0  0  0  0  0  0  0  0  0  0  0
    0.0000    0.0000    0.0000 C   0  0  0  0  0  0  0  0  0  0  0  0
    0.0000    0.0000    0.0000 C   0  0  0  0  0  0  0  0  0  0  0  0
    0.0000    0.0000    0.0000 N   0  0  0  0  0  0  0  0  0  0  0  0
    0.0000    0.0000    0.0000 C   0  0  0  0  0  0  0  0  0  0  0  0
    0.0000    0.0000    0.0000 C   0  0  0  0  0  0  0  0  0  0  0  0
    0.0000    0.0000    0.0000 C   0  0  0  0  0  0  0  0  0  0  0  0
    0.0000    0.0000    0.0000 C   0  0  0  0  0  0  0  0  0  0  0  0
    0.0000    0.0000    0.0000 C   0  0  0  0  0  0  0  0  0  0  0  0
    0.0000    0.0000    0.0000 C   0  0  0  0  0  0  0  0  0  0  0  0
    0.0000    0.0000    0.0000 C   0  0  0  0  0  0  0  0  0  0  0  0
    0.0000    0.0000    0.0000 C   0  0  0  0  0  0  0  0  0  0  0  0
    0.0000    0.0000    0.0000 C   0  0  0  0  0  0  0  0  0  0  0  0
    0.0000    0.0000    0.0000 C   0  0  0  0  0  0  0  0  0  0  0  0
    0.0000    0.0000    0.0000 C   0  0  0  0  0  0  0  0  0  0  0  0
    0.0000    0.0000    0.0000 C   0  0  0  0  0  0  0  0  0  0  0  0
    0.0000    0.0000    0.0000 C   0  0  0  0  0  0  0  0  0  0  0  0
    0.0000    0.0000    0.0000 C   0  0  0  0  0  0  0  0  0  0  0  0
  1  2  1  0
  2  3  1  0
  3  4  2  0
  3  5  1  0
  5  6  1  0
  6  7  1  0
  7  8  1  0
  7  9  1  0
  9 10  1  0
  9 11  1  0
  5 12  1  0
 12 13  2  0
 13 14  1  0
 14 15  2  0
 15 16  1  0
 16 17  2  0
  5 18  1  0
 18 19  2  0
 19 20  1  0
 20 21  2  0
 21 22  1  0
 22 23  2  0
 17 12  1  0
 23 18  1  0
M  END
>  <pIC50>  (47) 
8.39

>  <ChEMBL_ID>  (47) 
CHEMBL651

>  <document_journal>  (47) 
J. Med. Chem.

>  <bao_endpoint>  (47) 
BAO_0000190

>  <potential_duplicate>  (47) 
False

>  <uo_units>  (47) 
UO_0000065

>  <canonical_smiles>  (47) 
CCC(=O)C(CC(C)N(C)C)(c1ccccc1)c2ccccc2

>  <parent_molecule_chembl_id>  (47) 
CHEMBL651

>  <assay_type>  (47) 
B

>  <src_id>  (47) 
1

>  <ligand_efficiency>  (47) 
{u'le': u'0.5', u'bei': u'27.1', u'sei': u'41.3', u'lle': u'3.93'}

>  <standard_flag>  (47) 
True

>  <molecule_chembl_id>  (47) 
CHEMBL651

>  <target_organism>  (47) 
Homo sapiens

>  <standard_units>  (47) 
nM

>  <record_id>  (47) 
215767

>  <document_chembl_id>  (47) 
CHEMBL1134447

>  <bao_format>  (47) 
BAO_0000357

>  <data_validity_description>  (47) 
None

>  <activity_id>  (47) 
125908

>  <standard_type>  (47) 
IC50

>  <target_chembl_id>  (47) 
CHEMBL233

>  <data_validity_comment>  (47) 
None

>  <published_value>  (47) 
4.1

>  <document_year>  (47) 
2001

>  <target_pref_name>  (47) 
Mu opioid receptor

>  <assay_chembl_id>  (47) 
CHEMBL757060

>  <standard_relation>  (47) 
=

>  <assay_description>  (47) 
Binding affinity against mu-opiate receptor (human) using [3H]DAMGO radioligand

>  <published_relation>  (47) 
=

>  <standard_value>  (47) 
4.1

>  <qudt_units>  (47) 
http://www.openphacts.org/units/Nanomolar

>  <target_tax_id>  (47) 
9606

>  <bao_label>  (47) 
single protein format

>  <published_units>  (47) 
nM

>  <pchembl_value>  (47) 
8.39

>  <published_type>  (47) 
IC50

>  <activity_comment>  (47) 
None

$$$$

     RDKit          

 28 31  0  0  0  0  0  0  0  0999 V2000
    0.0000    0.0000    0.0000 O   0  0  0  0  0  0  0  0  0  0  0  0
    0.0000    0.0000    0.0000 C   0  0  0  0  0  0  0  0  0  0  0  0
    0.0000    0.0000    0.0000 N   0  0  0  0  0  0  0  0  0  0  0  0
    0.0000    0.0000    0.0000 N   0  0  0  0  0  0  0  0  0  0  0  0
    0.0000    0.0000    0.0000 C   0  0  0  0  0  0  0  0  0  0  0  0
    0.0000    0.0000    0.0000 C   0  0  0  0  0  0  0  0  0  0  0  0
    0.0000    0.0000    0.0000 C   0  0  0  0  0  0  0  0  0  0  0  0
    0.0000    0.0000    0.0000 C   0  0  0  0  0  0  0  0  0  0  0  0
    0.0000    0.0000    0.0000 C   0  0  0  0  0  0  0  0  0  0  0  0
    0.0000    0.0000    0.0000 C   0  0  0  0  0  0  0  0  0  0  0  0
    0.0000    0.0000    0.0000 C   0  0  0  0  0  0  0  0  0  0  0  0
    0.0000    0.0000    0.0000 C   0  0  0  0  0  0  0  0  0  0  0  0
    0.0000    0.0000    0.0000 C   0  0  0  0  0  0  0  0  0  0  0  0
    0.0000    0.0000    0.0000 N   0  0  0  0  0  0  0  0  0  0  0  0
    0.0000    0.0000    0.0000 C   0  0  0  0  0  0  0  0  0  0  0  0
    0.0000    0.0000    0.0000 O   0  0  0  0  0  0  0  0  0  0  0  0
    0.0000    0.0000    0.0000 O   0  0  0  0  0  0  0  0  0  0  0  0
    0.0000    0.0000    0.0000 C   0  0  0  0  0  0  0  0  0  0  0  0
    0.0000    0.0000    0.0000 C   0  0  0  0  0  0  0  0  0  0  0  0
    0.0000    0.0000    0.0000 C   0  0  0  0  0  0  0  0  0  0  0  0
    0.0000    0.0000    0.0000 C   0  0  0  0  0  0  0  0  0  0  0  0
    0.0000    0.0000    0.0000 C   0  0  0  0  0  0  0  0  0  0  0  0
    0.0000    0.0000    0.0000 C   0  0  0  0  0  0  0  0  0  0  0  0
    0.0000    0.0000    0.0000 Cl  0  0  0  0  0  0  0  0  0  0  0  0
    0.0000    0.0000    0.0000 O   0  0  0  0  0  0  0  0  0  0  0  0
    0.0000    0.0000    0.0000 C   0  0  0  0  0  0  0  0  0  0  0  0
    0.0000    0.0000    0.0000 C   0  0  0  0  0  0  0  0  0  0  0  0
    0.0000    0.0000    0.0000 O   0  0  0  0  0  0  0  0  0  0  0  0
  1  2  2  0
  2  3  1  0
  4  2  1  0
  5  4  1  0
  4  6  1  0
  7  5  1  0
  5  8  2  0
  6  9  1  0
 10  7  2  0
  3  8  1  0
  8 11  1  0
  9 12  1  0
 13 10  1  0
 11 13  2  0
 12 14  1  0
 14 15  1  0
 15 16  2  0
 15 17  1  0
 17 18  1  0
 18 19  1  0
 19 20  2  0
 21 19  1  0
 20 22  1  0
 23 21  2  0
 21 24  1  0
 22 25  1  0
 26 22  2  0
 26 23  1  0
 25 27  1  0
 28 26  1  0
 27 28  1  0
M  END
>  <pIC50>  (48) 
5.61

>  <ChEMBL_ID>  (48) 
CHEMBL333843

>  <document_journal>  (48) 
J. Med. Chem.

>  <bao_endpoint>  (48) 
BAO_0000190

>  <potential_duplicate>  (48) 
False

>  <uo_units>  (48) 
UO_0000065

>  <canonical_smiles>  (48) 
Oc1nc2ccccc2n1CCCNC(=O)OCc3cc4OCOc4cc3Cl

>  <parent_molecule_chembl_id>  (48) 
CHEMBL333843

>  <assay_type>  (48) 
B

>  <src_id>  (48) 
1

>  <ligand_efficiency>  (48) 
{u'le': u'0.27', u'bei': u'13.88', u'sei': u'5.91', u'lle': u'1.84'}

>  <standard_flag>  (48) 
True

>  <molecule_chembl_id>  (48) 
CHEMBL333843

>  <target_organism>  (48) 
Homo sapiens

>  <standard_units>  (48) 
nM

>  <record_id>  (48) 
215782

>  <document_chembl_id>  (48) 
CHEMBL1134447

>  <bao_format>  (48) 
BAO_0000357

>  <data_validity_description>  (48) 
None

>  <activity_id>  (48) 
127411

>  <standard_type>  (48) 
IC50

>  <target_chembl_id>  (48) 
CHEMBL233

>  <data_validity_comment>  (48) 
None

>  <published_value>  (48) 
2480

>  <document_year>  (48) 
2001

>  <target_pref_name>  (48) 
Mu opioid receptor

>  <assay_chembl_id>  (48) 
CHEMBL757060

>  <standard_relation>  (48) 
=

>  <assay_description>  (48) 
Binding affinity against mu-opiate receptor (human) using [3H]DAMGO radioligand

>  <published_relation>  (48) 
=

>  <standard_value>  (48) 
2480

>  <qudt_units>  (48) 
http://www.openphacts.org/units/Nanomolar

>  <target_tax_id>  (48) 
9606

>  <bao_label>  (48) 
single protein format

>  <published_units>  (48) 
nM

>  <pchembl_value>  (48) 
5.61

>  <published_type>  (48) 
IC50

>  <activity_comment>  (48) 
None

$$$$

     RDKit          

 26 29  0  0  0  0  0  0  0  0999 V2000
    0.0000    0.0000    0.0000 O   0  0  0  0  0  0  0  0  0  0  0  0
    0.0000    0.0000    0.0000 C   0  0  0  0  0  0  0  0  0  0  0  0
    0.0000    0.0000    0.0000 N   0  0  0  0  0  0  0  0  0  0  0  0
    0.0000    0.0000    0.0000 N   0  0  0  0  0  0  0  0  0  0  0  0
    0.0000    0.0000    0.0000 C   0  0  0  0  0  0  0  0  0  0  0  0
    0.0000    0.0000    0.0000 C   0  0  0  0  0  0  0  0  0  0  0  0
    0.0000    0.0000    0.0000 C   0  0  0  0  0  0  0  0  0  0  0  0
    0.0000    0.0000    0.0000 C   0  0  0  0  0  0  0  0  0  0  0  0
    0.0000    0.0000    0.0000 C   0  0  0  0  0  0  0  0  0  0  0  0
    0.0000    0.0000    0.0000 C   0  0  0  0  0  0  0  0  0  0  0  0
    0.0000    0.0000    0.0000 C   0  0  0  0  0  0  0  0  0  0  0  0
    0.0000    0.0000    0.0000 C   0  0  0  0  0  0  0  0  0  0  0  0
    0.0000    0.0000    0.0000 C   0  0  0  0  0  0  0  0  0  0  0  0
    0.0000    0.0000    0.0000 C   0  0  0  0  0  0  0  0  0  0  0  0
    0.0000    0.0000    0.0000 N   0  0  0  0  0  0  0  0  0  0  0  0
    0.0000    0.0000    0.0000 C   0  0  0  0  0  0  0  0  0  0  0  0
    0.0000    0.0000    0.0000 C   0  0  0  0  0  0  0  0  0  0  0  0
    0.0000    0.0000    0.0000 C   0  0  0  0  0  0  0  0  0  0  0  0
    0.0000    0.0000    0.0000 C   0  0  0  0  0  0  0  0  0  0  0  0
    0.0000    0.0000    0.0000 C   0  0  0  0  0  0  0  0  0  0  0  0
    0.0000    0.0000    0.0000 C   0  0  0  0  0  0  0  0  0  0  0  0
    0.0000    0.0000    0.0000 Cl  0  0  0  0  0  0  0  0  0  0  0  0
    0.0000    0.0000    0.0000 C   0  0  0  0  0  0  0  0  0  0  0  0
    0.0000    0.0000    0.0000 C   0  0  0  0  0  0  0  0  0  0  0  0
    0.0000    0.0000    0.0000 O   0  0  0  0  0  0  0  0  0  0  0  0
    0.0000    0.0000    0.0000 C   0  0  0  0  0  0  0  0  0  0  0  0
  1  2  2  0
  2  3  1  0
  4  2  1  0
  5  4  1  0
  6  4  1  0
  7  5  1  0
  5  8  1  0
  9  6  1  0
  6 10  2  0
 11  7  1  0
  8 12  1  0
 13  9  2  0
  3 10  1  0
 10 14  1  0
 15 11  1  0
 12 15  1  0
 16 13  1  0
 14 16  2  0
 17 15  1  0
 18 17  1  0
 19 18  2  0
 18 20  1  0
 21 19  1  0
 20 22  1  0
 20 23  2  0
 24 21  2  0
 23 24  1  0
 25 24  1  0
 26 25  1  0
M  END
>  <pIC50>  (49) 
7.8

>  <ChEMBL_ID>  (49) 
CHEMBL112191

>  <document_journal>  (49) 
J. Med. Chem.

>  <bao_endpoint>  (49) 
BAO_0000190

>  <potential_duplicate>  (49) 
False

>  <uo_units>  (49) 
UO_0000065

>  <canonical_smiles>  (49) 
COc1ccc(CN2CCC(CC2)n3c(O)nc4ccccc34)c(Cl)c1

>  <parent_molecule_chembl_id>  (49) 
CHEMBL112191

>  <assay_type>  (49) 
B

>  <src_id>  (49) 
1

>  <ligand_efficiency>  (49) 
{u'le': u'0.41', u'bei': u'20.96', u'sei': u'15.43', u'lle': u'3.61'}

>  <standard_flag>  (49) 
True

>  <molecule_chembl_id>  (49) 
CHEMBL112191

>  <target_organism>  (49) 
Homo sapiens

>  <standard_units>  (49) 
nM

>  <record_id>  (49) 
215779

>  <document_chembl_id>  (49) 
CHEMBL1134447

>  <bao_format>  (49) 
BAO_0000357

>  <data_validity_description>  (49) 
None

>  <activity_id>  (49) 
128392

>  <standard_type>  (49) 
IC50

>  <target_chembl_id>  (49) 
CHEMBL233

>  <data_validity_comment>  (49) 
None

>  <published_value>  (49) 
16

>  <document_year>  (49) 
2001

>  <target_pref_name>  (49) 
Mu opioid receptor

>  <assay_chembl_id>  (49) 
CHEMBL757060

>  <standard_relation>  (49) 
=

>  <assay_description>  (49) 
Binding affinity against mu-opiate receptor (human) using [3H]DAMGO radioligand

>  <published_relation>  (49) 
=

>  <standard_value>  (49) 
16

>  <qudt_units>  (49) 
http://www.openphacts.org/units/Nanomolar

>  <target_tax_id>  (49) 
9606

>  <bao_label>  (49) 
single protein format

>  <published_units>  (49) 
nM

>  <pchembl_value>  (49) 
7.8

>  <published_type>  (49) 
IC50

>  <activity_comment>  (49) 
None

$$$$

     RDKit          

 26 31  0  0  0  0  0  0  0  0999 V2000
    0.0000    0.0000    0.0000 O   0  0  0  0  0  0  0  0  0  0  0  0
    0.0000    0.0000    0.0000 C   0  0  0  0  0  0  0  0  0  0  0  0
    0.0000    0.0000    0.0000 C   0  0  0  0  0  0  0  0  0  0  0  0
    0.0000    0.0000    0.0000 C   0  0  0  0  0  0  0  0  0  0  0  0
    0.0000    0.0000    0.0000 C   0  0  0  0  0  0  0  0  0  0  0  0
    0.0000    0.0000    0.0000 O   0  0  0  0  0  0  0  0  0  0  0  0
    0.0000    0.0000    0.0000 C   0  0  0  0  0  0  0  0  0  0  0  0
    0.0000    0.0000    0.0000 C   0  0  0  0  0  0  0  0  0  0  0  0
    0.0000    0.0000    0.0000 C   0  0  0  0  0  0  0  0  0  0  0  0
    0.0000    0.0000    0.0000 C   0  0  0  0  0  0  0  0  0  0  0  0
    0.0000    0.0000    0.0000 C   0  0  0  0  0  0  0  0  0  0  0  0
    0.0000    0.0000    0.0000 C   0  0  0  0  0  0  0  0  0  0  0  0
    0.0000    0.0000    0.0000 O   0  0  0  0  0  0  0  0  0  0  0  0
    0.0000    0.0000    0.0000 C   0  0  0  0  0  0  0  0  0  0  0  0
    0.0000    0.0000    0.0000 O   0  0  0  0  0  0  0  0  0  0  0  0
    0.0000    0.0000    0.0000 C   0  0  0  0  0  0  0  0  0  0  0  0
    0.0000    0.0000    0.0000 C   0  0  0  0  0  0  0  0  0  0  0  0
    0.0000    0.0000    0.0000 C   0  0  0  0  0  0  0  0  0  0  0  0
    0.0000    0.0000    0.0000 C   0  0  0  0  0  0  0  0  0  0  0  0
    0.0000    0.0000    0.0000 N   0  0  0  0  0  0  0  0  0  0  0  0
    0.0000    0.0000    0.0000 C   0  0  0  0  0  0  0  0  0  0  0  0
    0.0000    0.0000    0.0000 C   0  0  0  0  0  0  0  0  0  0  0  0
    0.0000    0.0000    0.0000 C   0  0  0  0  0  0  0  0  0  0  0  0
    0.0000    0.0000    0.0000 C   0  0  0  0  0  0  0  0  0  0  0  0
    0.0000    0.0000    0.0000 C   0  0  0  0  0  0  0  0  0  0  0  0
    0.0000    0.0000    0.0000 C   0  0  0  0  0  0  0  0  0  0  0  0
  1  2  1  0
  2  3  1  0
  3  4  1  0
  4  5  1  0
  5  6  1  0
  5  7  1  0
  7  8  1  0
  8  9  1  0
  9 10  2  0
 10 11  1  0
 11 12  2  0
 12 13  1  0
 12 14  1  0
 14 15  1  0
 15 16  1  0
 16 17  1  0
 17 18  1  0
 18 19  1  0
 19 20  1  0
 20 21  1  0
 21 22  1  0
 22 23  1  0
 23 24  1  0
 24 25  1  0
 17 26  1  0
 16  2  1  0
 17  5  1  0
 20  7  1  0
 26  9  1  0
 26 14  2  0
 25 22  1  0
M  END
>  <pIC50>  (50) 
7.65

>  <ChEMBL_ID>  (50) 
CHEMBL895

>  <document_journal>  (50) 
J. Med. Chem.

>  <bao_endpoint>  (50) 
BAO_0000190

>  <potential_duplicate>  (50) 
False

>  <uo_units>  (50) 
UO_0000065

>  <canonical_smiles>  (50) 
O[C@H]1CC[C@@]2(O)[C@H]3Cc4ccc(O)c5O[C@@H]1[C@]2(CCN3CC6CCC6)c45

>  <parent_molecule_chembl_id>  (50) 
CHEMBL895

>  <assay_type>  (50) 
B

>  <src_id>  (50) 
1

>  <ligand_efficiency>  (50) 
{u'le': u'0.47', u'bei': u'25.18', u'sei': u'12.3', u'lle': u'6.88'}

>  <standard_flag>  (50) 
True

>  <molecule_chembl_id>  (50) 
CHEMBL895

>  <target_organism>  (50) 
Homo sapiens

>  <standard_units>  (50) 
nM

>  <record_id>  (50) 
215773

>  <document_chembl_id>  (50) 
CHEMBL1134447

>  <bao_format>  (50) 
BAO_0000357

>  <data_validity_description>  (50) 
None

>  <activity_id>  (50) 
128397

>  <standard_type>  (50) 
IC50

>  <target_chembl_id>  (50) 
CHEMBL233

>  <data_validity_comment>  (50) 
None

>  <published_value>  (50) 
1

>  <document_year>  (50) 
2001

>  <target_pref_name>  (50) 
Mu opioid receptor

>  <assay_chembl_id>  (50) 
CHEMBL757060

>  <standard_relation>  (50) 
=

>  <assay_description>  (50) 
Binding affinity against mu-opiate receptor (human) using [3H]DAMGO radioligand

>  <published_relation>  (50) 
=

>  <standard_value>  (50) 
1

>  <qudt_units>  (50) 
http://www.openphacts.org/units/Nanomolar

>  <target_tax_id>  (50) 
9606

>  <bao_label>  (50) 
single protein format

>  <published_units>  (50) 
nM

>  <pchembl_value>  (50) 
9

>  <published_type>  (50) 
IC50

>  <activity_comment>  (50) 
None

$$$$

     RDKit          

 31 35  0  0  0  0  0  0  0  0999 V2000
    0.0000    0.0000    0.0000 O   0  0  0  0  0  0  0  0  0  0  0  0
    0.0000    0.0000    0.0000 C   0  0  0  0  0  0  0  0  0  0  0  0
    0.0000    0.0000    0.0000 N   0  0  0  0  0  0  0  0  0  0  0  0
    0.0000    0.0000    0.0000 N   0  0  0  0  0  0  0  0  0  0  0  0
    0.0000    0.0000    0.0000 C   0  0  0  0  0  0  0  0  0  0  0  0
    0.0000    0.0000    0.0000 C   0  0  0  0  0  0  0  0  0  0  0  0
    0.0000    0.0000    0.0000 C   0  0  0  0  0  0  0  0  0  0  0  0
    0.0000    0.0000    0.0000 C   0  0  0  0  0  0  0  0  0  0  0  0
    0.0000    0.0000    0.0000 C   0  0  0  0  0  0  0  0  0  0  0  0
    0.0000    0.0000    0.0000 C   0  0  0  0  0  0  0  0  0  0  0  0
    0.0000    0.0000    0.0000 C   0  0  0  0  0  0  0  0  0  0  0  0
    0.0000    0.0000    0.0000 C   0  0  0  0  0  0  0  0  0  0  0  0
    0.0000    0.0000    0.0000 C   0  0  0  0  0  0  0  0  0  0  0  0
    0.0000    0.0000    0.0000 C   0  0  0  0  0  0  0  0  0  0  0  0
    0.0000    0.0000    0.0000 N   0  0  0  0  0  0  0  0  0  0  0  0
    0.0000    0.0000    0.0000 C   0  0  0  0  0  0  0  0  0  0  0  0
    0.0000    0.0000    0.0000 C   0  0  0  0  0  0  0  0  0  0  0  0
    0.0000    0.0000    0.0000 C   0  0  0  0  0  0  0  0  0  0  0  0
    0.0000    0.0000    0.0000 O   0  0  0  0  0  0  0  0  0  0  0  0
    0.0000    0.0000    0.0000 O   0  0  0  0  0  0  0  0  0  0  0  0
    0.0000    0.0000    0.0000 C   0  0  0  0  0  0  0  0  0  0  0  0
    0.0000    0.0000    0.0000 C   0  0  0  0  0  0  0  0  0  0  0  0
    0.0000    0.0000    0.0000 C   0  0  0  0  0  0  0  0  0  0  0  0
    0.0000    0.0000    0.0000 C   0  0  0  0  0  0  0  0  0  0  0  0
    0.0000    0.0000    0.0000 C   0  0  0  0  0  0  0  0  0  0  0  0
    0.0000    0.0000    0.0000 C   0  0  0  0  0  0  0  0  0  0  0  0
    0.0000    0.0000    0.0000 Cl  0  0  0  0  0  0  0  0  0  0  0  0
    0.0000    0.0000    0.0000 O   0  0  0  0  0  0  0  0  0  0  0  0
    0.0000    0.0000    0.0000 C   0  0  0  0  0  0  0  0  0  0  0  0
    0.0000    0.0000    0.0000 C   0  0  0  0  0  0  0  0  0  0  0  0
    0.0000    0.0000    0.0000 O   0  0  0  0  0  0  0  0  0  0  0  0
  1  2  2  0
  2  3  1  0
  2  4  1  0
  4  5  1  0
  4  6  1  0
  5  7  1  0
  8  5  1  0
  6  9  1  0
  6 10  2  0
  7 11  1  0
 12  8  1  0
  9 13  2  0
 14 10  1  0
 10  3  1  0
 11 15  1  0
 15 12  1  0
 16 13  1  0
 13 17  1  0
 17 14  2  0
 15 18  1  0
 18 19  2  0
 18 20  1  0
 20 21  1  0
 21 22  1  0
 22 23  2  0
 24 22  1  0
 23 25  1  0
 26 24  2  0
 24 27  1  0
 25 28  1  0
 29 25  2  0
 29 26  1  0
 28 30  1  0
 31 29  1  0
 30 31  1  0
M  END
>  <pIC50>  (51) 
5.91

>  <ChEMBL_ID>  (51) 
CHEMBL326320

>  <document_journal>  (51) 
J. Med. Chem.

>  <bao_endpoint>  (51) 
BAO_0000190

>  <potential_duplicate>  (51) 
False

>  <uo_units>  (51) 
UO_0000065

>  <canonical_smiles>  (51) 
Cc1ccc2nc(O)n(C3CCN(CC3)C(=O)OCc4cc5OCOc5cc4Cl)c2c1

>  <parent_molecule_chembl_id>  (51) 
CHEMBL326320

>  <assay_type>  (51) 
B

>  <src_id>  (51) 
1

>  <ligand_efficiency>  (51) 
{u'le': u'0.26', u'bei': u'13.31', u'sei': u'6.87', u'lle': u'1.54'}

>  <standard_flag>  (51) 
True

>  <molecule_chembl_id>  (51) 
CHEMBL326320

>  <target_organism>  (51) 
Homo sapiens

>  <standard_units>  (51) 
nM

>  <record_id>  (51) 
215746

>  <document_chembl_id>  (51) 
CHEMBL1134447

>  <bao_format>  (51) 
BAO_0000357

>  <data_validity_description>  (51) 
None

>  <activity_id>  (51) 
129759

>  <standard_type>  (51) 
IC50

>  <target_chembl_id>  (51) 
CHEMBL233

>  <data_validity_comment>  (51) 
None

>  <published_value>  (51) 
1235

>  <document_year>  (51) 
2001

>  <target_pref_name>  (51) 
Mu opioid receptor

>  <assay_chembl_id>  (51) 
CHEMBL757060

>  <standard_relation>  (51) 
=

>  <assay_description>  (51) 
Binding affinity against mu-opiate receptor (human) using [3H]DAMGO radioligand

>  <published_relation>  (51) 
=

>  <standard_value>  (51) 
1235

>  <qudt_units>  (51) 
http://www.openphacts.org/units/Nanomolar

>  <target_tax_id>  (51) 
9606

>  <bao_label>  (51) 
single protein format

>  <published_units>  (51) 
nM

>  <pchembl_value>  (51) 
5.91

>  <published_type>  (51) 
IC50

>  <activity_comment>  (51) 
None

$$$$

     RDKit          

 30 34  0  0  0  0  0  0  0  0999 V2000
    0.0000    0.0000    0.0000 O   0  0  0  0  0  0  0  0  0  0  0  0
    0.0000    0.0000    0.0000 C   0  0  0  0  0  0  0  0  0  0  0  0
    0.0000    0.0000    0.0000 O   0  0  0  0  0  0  0  0  0  0  0  0
    0.0000    0.0000    0.0000 C   0  0  0  0  0  0  0  0  0  0  0  0
    0.0000    0.0000    0.0000 C   0  0  0  0  0  0  0  0  0  0  0  0
    0.0000    0.0000    0.0000 C   0  0  0  0  0  0  0  0  0  0  0  0
    0.0000    0.0000    0.0000 C   0  0  0  0  0  0  0  0  0  0  0  0
    0.0000    0.0000    0.0000 C   0  0  0  0  0  0  0  0  0  0  0  0
    0.0000    0.0000    0.0000 O   0  0  0  0  0  0  0  0  0  0  0  0
    0.0000    0.0000    0.0000 C   0  0  0  0  0  0  0  0  0  0  0  0
    0.0000    0.0000    0.0000 O   0  0  0  0  0  0  0  0  0  0  0  0
    0.0000    0.0000    0.0000 C   0  0  0  0  0  0  0  0  0  0  0  0
    0.0000    0.0000    0.0000 C   0  0  0  0  0  0  0  0  0  0  0  0
    0.0000    0.0000    0.0000 N   0  0  0  0  0  0  0  0  0  0  0  0
    0.0000    0.0000    0.0000 C   0  0  0  0  0  0  0  0  0  0  0  0
    0.0000    0.0000    0.0000 C   0  0  0  0  0  0  0  0  0  0  0  0
    0.0000    0.0000    0.0000 C   0  0  0  0  0  0  0  0  0  0  0  0
    0.0000    0.0000    0.0000 C   0  0  0  0  0  0  0  0  0  0  0  0
    0.0000    0.0000    0.0000 C   0  0  0  0  0  0  0  0  0  0  0  0
    0.0000    0.0000    0.0000 N   0  0  0  0  0  0  0  0  0  0  0  0
    0.0000    0.0000    0.0000 C   0  0  0  0  0  0  0  0  0  0  0  0
    0.0000    0.0000    0.0000 N   0  0  0  0  0  0  0  0  0  0  0  0
    0.0000    0.0000    0.0000 C   0  0  0  0  0  0  0  0  0  0  0  0
    0.0000    0.0000    0.0000 O   0  0  0  0  0  0  0  0  0  0  0  0
    0.0000    0.0000    0.0000 C   0  0  0  0  0  0  0  0  0  0  0  0
    0.0000    0.0000    0.0000 C   0  0  0  0  0  0  0  0  0  0  0  0
    0.0000    0.0000    0.0000 C   0  0  0  0  0  0  0  0  0  0  0  0
    0.0000    0.0000    0.0000 C   0  0  0  0  0  0  0  0  0  0  0  0
    0.0000    0.0000    0.0000 C   0  0  0  0  0  0  0  0  0  0  0  0
    0.0000    0.0000    0.0000 C   0  0  0  0  0  0  0  0  0  0  0  0
  1  2  2  0
  2  3  1  0
  3  4  1  0
  4  5  1  0
  5  6  2  0
  6  7  1  0
  7  8  2  0
  8  9  1  0
  9 10  1  0
 10 11  1  0
 11 12  1  0
 12 13  2  0
  2 14  1  0
 14 15  1  0
 15 16  1  0
 16 17  1  0
 17 18  1  0
 18 19  1  0
 17 20  1  0
 20 21  1  0
 21 22  1  0
 22 23  1  0
 23 24  2  0
 20 25  1  0
 25 26  2  0
 26 27  1  0
 27 28  2  0
 28 29  1  0
 29 30  2  0
 13  5  1  0
 12  8  1  0
 19 14  1  0
 23 17  1  0
 30 25  1  0
M  END
>  <pIC50>  (52) 
5.64

>  <ChEMBL_ID>  (52) 
CHEMBL420500

>  <document_journal>  (52) 
J. Med. Chem.

>  <bao_endpoint>  (52) 
BAO_0000190

>  <potential_duplicate>  (52) 
False

>  <uo_units>  (52) 
UO_0000065

>  <canonical_smiles>  (52) 
O=C(OCc1ccc2OCOc2c1)N3CCC4(CC3)N(CNC4=O)c5ccccc5

>  <parent_molecule_chembl_id>  (52) 
CHEMBL420500

>  <assay_type>  (52) 
B

>  <src_id>  (52) 
1

>  <ligand_efficiency>  (52) 
{u'le': u'0.26', u'bei': u'13.78', u'sei': u'7.02', u'lle': u'3.35'}

>  <standard_flag>  (52) 
True

>  <molecule_chembl_id>  (52) 
CHEMBL420500

>  <target_organism>  (52) 
Homo sapiens

>  <standard_units>  (52) 
nM

>  <record_id>  (52) 
215775

>  <document_chembl_id>  (52) 
CHEMBL1134447

>  <bao_format>  (52) 
BAO_0000357

>  <data_validity_description>  (52) 
None

>  <activity_id>  (52) 
138471

>  <standard_type>  (52) 
IC50

>  <target_chembl_id>  (52) 
CHEMBL233

>  <data_validity_comment>  (52) 
None

>  <published_value>  (52) 
2285

>  <document_year>  (52) 
2001

>  <target_pref_name>  (52) 
Mu opioid receptor

>  <assay_chembl_id>  (52) 
CHEMBL757060

>  <standard_relation>  (52) 
=

>  <assay_description>  (52) 
Binding affinity against mu-opiate receptor (human) using [3H]DAMGO radioligand

>  <published_relation>  (52) 
=

>  <standard_value>  (52) 
2285

>  <qudt_units>  (52) 
http://www.openphacts.org/units/Nanomolar

>  <target_tax_id>  (52) 
9606

>  <bao_label>  (52) 
single protein format

>  <published_units>  (52) 
nM

>  <pchembl_value>  (52) 
5.64

>  <published_type>  (52) 
IC50

>  <activity_comment>  (52) 
None

$$$$

     RDKit          

 27 31  0  0  0  0  0  0  0  0999 V2000
    0.0000    0.0000    0.0000 O   0  0  0  0  0  0  0  0  0  0  0  0
    0.0000    0.0000    0.0000 C   0  0  0  0  0  0  0  0  0  0  0  0
    0.0000    0.0000    0.0000 N   0  0  0  0  0  0  0  0  0  0  0  0
    0.0000    0.0000    0.0000 C   0  0  0  0  0  0  0  0  0  0  0  0
    0.0000    0.0000    0.0000 N   0  0  0  0  0  0  0  0  0  0  0  0
    0.0000    0.0000    0.0000 C   0  0  0  0  0  0  0  0  0  0  0  0
    0.0000    0.0000    0.0000 C   0  0  0  0  0  0  0  0  0  0  0  0
    0.0000    0.0000    0.0000 C   0  0  0  0  0  0  0  0  0  0  0  0
    0.0000    0.0000    0.0000 C   0  0  0  0  0  0  0  0  0  0  0  0
    0.0000    0.0000    0.0000 C   0  0  0  0  0  0  0  0  0  0  0  0
    0.0000    0.0000    0.0000 C   0  0  0  0  0  0  0  0  0  0  0  0
    0.0000    0.0000    0.0000 C   0  0  0  0  0  0  0  0  0  0  0  0
    0.0000    0.0000    0.0000 C   0  0  0  0  0  0  0  0  0  0  0  0
    0.0000    0.0000    0.0000 C   0  0  0  0  0  0  0  0  0  0  0  0
    0.0000    0.0000    0.0000 N   0  0  0  0  0  0  0  0  0  0  0  0
    0.0000    0.0000    0.0000 C   0  0  0  0  0  0  0  0  0  0  0  0
    0.0000    0.0000    0.0000 C   0  0  0  0  0  0  0  0  0  0  0  0
    0.0000    0.0000    0.0000 C   0  0  0  0  0  0  0  0  0  0  0  0
    0.0000    0.0000    0.0000 C   0  0  0  0  0  0  0  0  0  0  0  0
    0.0000    0.0000    0.0000 C   0  0  0  0  0  0  0  0  0  0  0  0
    0.0000    0.0000    0.0000 O   0  0  0  0  0  0  0  0  0  0  0  0
    0.0000    0.0000    0.0000 C   0  0  0  0  0  0  0  0  0  0  0  0
    0.0000    0.0000    0.0000 O   0  0  0  0  0  0  0  0  0  0  0  0
    0.0000    0.0000    0.0000 C   0  0  0  0  0  0  0  0  0  0  0  0
    0.0000    0.0000    0.0000 C   0  0  0  0  0  0  0  0  0  0  0  0
    0.0000    0.0000    0.0000 C   0  0  0  0  0  0  0  0  0  0  0  0
    0.0000    0.0000    0.0000 C   0  0  0  0  0  0  0  0  0  0  0  0
  1  2  2  0
  2  3  1  0
  3  4  1  0
  4  5  1  0
  5  6  1  0
  6  7  2  0
  7  8  1  0
  8  9  2  0
  9 10  1  0
 10 11  2  0
  5 12  1  0
 12 13  1  0
 13 14  1  0
 14 15  1  0
 15 16  1  0
 16 17  1  0
 17 18  2  0
 18 19  1  0
 19 20  2  0
 20 21  1  0
 21 22  1  0
 22 23  1  0
 23 24  1  0
 24 25  2  0
 15 26  1  0
 26 27  1  0
 12  2  1  0
 11  6  1  0
 27 12  1  0
 25 17  1  0
 24 20  1  0
M  END
>  <pIC50>  (53) 
7.78

>  <ChEMBL_ID>  (53) 
CHEMBL326962

>  <document_journal>  (53) 
J. Med. Chem.

>  <bao_endpoint>  (53) 
BAO_0000190

>  <potential_duplicate>  (53) 
False

>  <uo_units>  (53) 
UO_0000065

>  <canonical_smiles>  (53) 
O=C1NCN(c2ccccc2)C13CCN(Cc4ccc5OCOc5c4)CC3

>  <parent_molecule_chembl_id>  (53) 
CHEMBL326962

>  <assay_type>  (53) 
B

>  <src_id>  (53) 
1

>  <ligand_efficiency>  (53) 
{u'le': u'0.39', u'bei': u'21.28', u'sei': u'14.39', u'lle': u'5.4'}

>  <standard_flag>  (53) 
True

>  <molecule_chembl_id>  (53) 
CHEMBL326962

>  <target_organism>  (53) 
Homo sapiens

>  <standard_units>  (53) 
nM

>  <record_id>  (53) 
215763

>  <document_chembl_id>  (53) 
CHEMBL1134447

>  <bao_format>  (53) 
BAO_0000357

>  <data_validity_description>  (53) 
None

>  <activity_id>  (53) 
138481

>  <standard_type>  (53) 
IC50

>  <target_chembl_id>  (53) 
CHEMBL233

>  <data_validity_comment>  (53) 
None

>  <published_value>  (53) 
16.7

>  <document_year>  (53) 
2001

>  <target_pref_name>  (53) 
Mu opioid receptor

>  <assay_chembl_id>  (53) 
CHEMBL757060

>  <standard_relation>  (53) 
=

>  <assay_description>  (53) 
Binding affinity against mu-opiate receptor (human) using [3H]DAMGO radioligand

>  <published_relation>  (53) 
=

>  <standard_value>  (53) 
16.7

>  <qudt_units>  (53) 
http://www.openphacts.org/units/Nanomolar

>  <target_tax_id>  (53) 
9606

>  <bao_label>  (53) 
single protein format

>  <published_units>  (53) 
nM

>  <pchembl_value>  (53) 
7.78

>  <published_type>  (53) 
IC50

>  <activity_comment>  (53) 
None

$$$$

     RDKit          

 22 26  0  0  0  0  0  0  0  0999 V2000
    0.0000    0.0000    0.0000 C   0  0  0  0  0  0  0  0  0  0  0  0
    0.0000    0.0000    0.0000 O   0  0  0  0  0  0  0  0  0  0  0  0
    0.0000    0.0000    0.0000 C   0  0  0  0  0  0  0  0  0  0  0  0
    0.0000    0.0000    0.0000 C   0  0  0  0  0  0  0  0  0  0  0  0
    0.0000    0.0000    0.0000 C   0  0  0  0  0  0  0  0  0  0  0  0
    0.0000    0.0000    0.0000 C   0  0  0  0  0  0  0  0  0  0  0  0
    0.0000    0.0000    0.0000 C   0  0  0  0  0  0  0  0  0  0  0  0
    0.0000    0.0000    0.0000 C   0  0  0  0  0  0  0  0  0  0  0  0
    0.0000    0.0000    0.0000 C   0  0  0  0  0  0  0  0  0  0  0  0
    0.0000    0.0000    0.0000 C   0  0  0  0  0  0  0  0  0  0  0  0
    0.0000    0.0000    0.0000 C   0  0  0  0  0  0  0  0  0  0  0  0
    0.0000    0.0000    0.0000 C   0  0  0  0  0  0  0  0  0  0  0  0
    0.0000    0.0000    0.0000 O   0  0  0  0  0  0  0  0  0  0  0  0
    0.0000    0.0000    0.0000 C   0  0  0  0  0  0  0  0  0  0  0  0
    0.0000    0.0000    0.0000 O   0  0  0  0  0  0  0  0  0  0  0  0
    0.0000    0.0000    0.0000 C   0  0  0  0  0  0  0  0  0  0  0  0
    0.0000    0.0000    0.0000 C   0  0  0  0  0  0  0  0  0  0  0  0
    0.0000    0.0000    0.0000 C   0  0  0  0  0  0  0  0  0  0  0  0
    0.0000    0.0000    0.0000 C   0  0  0  0  0  0  0  0  0  0  0  0
    0.0000    0.0000    0.0000 C   0  0  0  0  0  0  0  0  0  0  0  0
    0.0000    0.0000    0.0000 N   0  0  0  0  0  0  0  0  0  0  0  0
    0.0000    0.0000    0.0000 C   0  0  0  0  0  0  0  0  0  0  0  0
  1  2  1  0
  2  3  1  0
  3  4  2  0
  4  5  1  0
  5  6  2  0
  6  7  1  0
  7  8  1  0
  8  9  1  0
  9 10  1  0
 10 11  2  0
 11 12  1  0
 12 13  1  0
 12 14  1  0
 14 15  1  0
 15 16  1  0
 16 17  2  0
 17 18  1  0
 18 19  1  0
 19 20  1  0
 20 21  1  0
 21 22  1  0
 16  3  1  0
 17  6  1  0
 21  8  1  0
 18  9  1  0
 18 14  1  0
M  END
>  <pIC50>  (54) 
6.28

>  <ChEMBL_ID>  (54) 
CHEMBL369475

>  <document_journal>  (54) 
J. Med. Chem.

>  <bao_endpoint>  (54) 
BAO_0000190

>  <potential_duplicate>  (54) 
False

>  <uo_units>  (54) 
UO_0000065

>  <canonical_smiles>  (54) 
O.COc1ccc2C[C@@H]3[C@@H]4C=C[C@H](O)[C@@H]5Oc1c2[C@]45CCN3C

>  <parent_molecule_chembl_id>  (54) 
CHEMBL485

>  <assay_type>  (54) 
B

>  <src_id>  (54) 
1

>  <ligand_efficiency>  (54) 
{u'le': u'0.39', u'bei': u'20.99', u'sei': u'14.99', u'lle': u'4.64'}

>  <standard_flag>  (54) 
True

>  <molecule_chembl_id>  (54) 
CHEMBL369475

>  <target_organism>  (54) 
Homo sapiens

>  <standard_units>  (54) 
nM

>  <record_id>  (54) 
215758

>  <document_chembl_id>  (54) 
CHEMBL1134447

>  <bao_format>  (54) 
BAO_0000357

>  <data_validity_description>  (54) 
None

>  <activity_id>  (54) 
138486

>  <standard_type>  (54) 
IC50

>  <target_chembl_id>  (54) 
CHEMBL233

>  <data_validity_comment>  (54) 
None

>  <published_value>  (54) 
520

>  <document_year>  (54) 
2001

>  <target_pref_name>  (54) 
Mu opioid receptor

>  <assay_chembl_id>  (54) 
CHEMBL757060

>  <standard_relation>  (54) 
=

>  <assay_description>  (54) 
Binding affinity against mu-opiate receptor (human) using [3H]DAMGO radioligand

>  <published_relation>  (54) 
=

>  <standard_value>  (54) 
520

>  <qudt_units>  (54) 
http://www.openphacts.org/units/Nanomolar

>  <target_tax_id>  (54) 
9606

>  <bao_label>  (54) 
single protein format

>  <published_units>  (54) 
nM

>  <pchembl_value>  (54) 
6.28

>  <published_type>  (54) 
IC50

>  <activity_comment>  (54) 
None

$$$$

     RDKit          

 31 35  0  0  0  0  0  0  0  0999 V2000
    0.0000    0.0000    0.0000 Cl  0  0  0  0  0  0  0  0  0  0  0  0
    0.0000    0.0000    0.0000 C   0  0  0  0  0  0  0  0  0  0  0  0
    0.0000    0.0000    0.0000 C   0  0  0  0  0  0  0  0  0  0  0  0
    0.0000    0.0000    0.0000 C   0  0  0  0  0  0  0  0  0  0  0  0
    0.0000    0.0000    0.0000 O   0  0  0  0  0  0  0  0  0  0  0  0
    0.0000    0.0000    0.0000 C   0  0  0  0  0  0  0  0  0  0  0  0
    0.0000    0.0000    0.0000 O   0  0  0  0  0  0  0  0  0  0  0  0
    0.0000    0.0000    0.0000 C   0  0  0  0  0  0  0  0  0  0  0  0
    0.0000    0.0000    0.0000 C   0  0  0  0  0  0  0  0  0  0  0  0
    0.0000    0.0000    0.0000 C   0  0  0  0  0  0  0  0  0  0  0  0
    0.0000    0.0000    0.0000 C   0  0  0  0  0  0  0  0  0  0  0  0
    0.0000    0.0000    0.0000 O   0  0  0  0  0  0  0  0  0  0  0  0
    0.0000    0.0000    0.0000 C   0  0  0  0  0  0  0  0  0  0  0  0
    0.0000    0.0000    0.0000 O   0  0  0  0  0  0  0  0  0  0  0  0
    0.0000    0.0000    0.0000 N   0  0  0  0  0  0  0  0  0  0  0  0
    0.0000    0.0000    0.0000 C   0  0  0  0  0  0  0  0  0  0  0  0
    0.0000    0.0000    0.0000 C   0  0  0  0  0  0  0  0  0  0  0  0
    0.0000    0.0000    0.0000 C   0  0  0  0  0  0  0  0  0  0  0  0
    0.0000    0.0000    0.0000 C   0  0  0  0  0  0  0  0  0  0  0  0
    0.0000    0.0000    0.0000 C   0  0  0  0  0  0  0  0  0  0  0  0
    0.0000    0.0000    0.0000 N   0  0  0  0  0  0  0  0  0  0  0  0
    0.0000    0.0000    0.0000 C   0  0  0  0  0  0  0  0  0  0  0  0
    0.0000    0.0000    0.0000 N   0  0  0  0  0  0  0  0  0  0  0  0
    0.0000    0.0000    0.0000 C   0  0  0  0  0  0  0  0  0  0  0  0
    0.0000    0.0000    0.0000 O   0  0  0  0  0  0  0  0  0  0  0  0
    0.0000    0.0000    0.0000 C   0  0  0  0  0  0  0  0  0  0  0  0
    0.0000    0.0000    0.0000 C   0  0  0  0  0  0  0  0  0  0  0  0
    0.0000    0.0000    0.0000 C   0  0  0  0  0  0  0  0  0  0  0  0
    0.0000    0.0000    0.0000 C   0  0  0  0  0  0  0  0  0  0  0  0
    0.0000    0.0000    0.0000 C   0  0  0  0  0  0  0  0  0  0  0  0
    0.0000    0.0000    0.0000 C   0  0  0  0  0  0  0  0  0  0  0  0
  1  2  1  0
  2  3  2  0
  3  4  1  0
  4  5  1  0
  5  6  1  0
  6  7  1  0
  7  8  1  0
  8  9  1  0
  9 10  2  0
 10 11  1  0
 11 12  1  0
 12 13  1  0
 13 14  2  0
 13 15  1  0
 15 16  1  0
 16 17  1  0
 17 18  1  0
 18 19  1  0
 19 20  1  0
 18 21  1  0
 21 22  1  0
 22 23  1  0
 23 24  1  0
 24 25  2  0
 21 26  1  0
 26 27  2  0
 27 28  1  0
 28 29  2  0
 29 30  1  0
 30 31  2  0
 10  2  1  0
  8  4  2  0
 20 15  1  0
 24 18  1  0
 31 26  1  0
M  END
>  <pIC50>  (55) 
5.76

>  <ChEMBL_ID>  (55) 
CHEMBL115076

>  <document_journal>  (55) 
J. Med. Chem.

>  <bao_endpoint>  (55) 
BAO_0000190

>  <potential_duplicate>  (55) 
True

>  <uo_units>  (55) 
UO_0000065

>  <canonical_smiles>  (55) 
Clc1cc2OCOc2cc1COC(=O)N3CCC4(CC3)N(CNC4=O)c5ccccc5

>  <parent_molecule_chembl_id>  (55) 
CHEMBL115076

>  <assay_type>  (55) 
B

>  <src_id>  (55) 
1

>  <ligand_efficiency>  (55) 
{u'le': u'0.25', u'bei': u'12.98', u'sei': u'7.17', u'lle': u'2.81'}

>  <standard_flag>  (55) 
True

>  <molecule_chembl_id>  (55) 
CHEMBL115076

>  <target_organism>  (55) 
Homo sapiens

>  <standard_units>  (55) 
nM

>  <record_id>  (55) 
215776

>  <document_chembl_id>  (55) 
CHEMBL1134447

>  <bao_format>  (55) 
BAO_0000357

>  <data_validity_description>  (55) 
None

>  <activity_id>  (55) 
139580

>  <standard_type>  (55) 
IC50

>  <target_chembl_id>  (55) 
CHEMBL233

>  <data_validity_comment>  (55) 
None

>  <published_value>  (55) 
1730

>  <document_year>  (55) 
2001

>  <target_pref_name>  (55) 
Mu opioid receptor

>  <assay_chembl_id>  (55) 
CHEMBL757060

>  <standard_relation>  (55) 
=

>  <assay_description>  (55) 
Binding affinity against mu-opiate receptor (human) using [3H]DAMGO radioligand

>  <published_relation>  (55) 
=

>  <standard_value>  (55) 
1730

>  <qudt_units>  (55) 
http://www.openphacts.org/units/Nanomolar

>  <target_tax_id>  (55) 
9606

>  <bao_label>  (55) 
single protein format

>  <published_units>  (55) 
nM

>  <pchembl_value>  (55) 
5.76

>  <published_type>  (55) 
IC50

>  <activity_comment>  (55) 
None

$$$$

     RDKit          

 34 37  0  0  0  0  0  0  0  0999 V2000
    0.0000    0.0000    0.0000 C   0  0  0  0  0  0  0  0  0  0  0  0
    0.0000    0.0000    0.0000 N   0  0  0  0  0  0  0  0  0  0  0  0
    0.0000    0.0000    0.0000 C   0  0  0  0  0  0  0  0  0  0  0  0
    0.0000    0.0000    0.0000 C   0  0  0  0  0  0  0  0  0  0  0  0
    0.0000    0.0000    0.0000 O   0  0  0  0  0  0  0  0  0  0  0  0
    0.0000    0.0000    0.0000 C   0  0  0  0  0  0  0  0  0  0  0  0
    0.0000    0.0000    0.0000 C   0  0  0  0  0  0  0  0  0  0  0  0
    0.0000    0.0000    0.0000 C   0  0  0  0  0  0  0  0  0  0  0  0
    0.0000    0.0000    0.0000 N   0  0  0  0  0  0  0  0  0  0  0  0
    0.0000    0.0000    0.0000 C   0  0  0  0  0  0  0  0  0  0  0  0
    0.0000    0.0000    0.0000 C   0  0  0  0  0  0  0  0  0  0  0  0
    0.0000    0.0000    0.0000 C   0  0  0  0  0  0  0  0  0  0  0  0
    0.0000    0.0000    0.0000 O   0  0  0  0  0  0  0  0  0  0  0  0
    0.0000    0.0000    0.0000 C   0  0  0  0  0  0  0  0  0  0  0  0
    0.0000    0.0000    0.0000 C   0  0  0  0  0  0  0  0  0  0  0  0
    0.0000    0.0000    0.0000 C   0  0  0  0  0  0  0  0  0  0  0  0
    0.0000    0.0000    0.0000 C   0  0  0  0  0  0  0  0  0  0  0  0
    0.0000    0.0000    0.0000 C   0  0  0  0  0  0  0  0  0  0  0  0
    0.0000    0.0000    0.0000 C   0  0  0  0  0  0  0  0  0  0  0  0
    0.0000    0.0000    0.0000 Cl  0  0  0  0  0  0  0  0  0  0  0  0
    0.0000    0.0000    0.0000 C   0  0  0  0  0  0  0  0  0  0  0  0
    0.0000    0.0000    0.0000 C   0  0  0  0  0  0  0  0  0  0  0  0
    0.0000    0.0000    0.0000 C   0  0  0  0  0  0  0  0  0  0  0  0
    0.0000    0.0000    0.0000 C   0  0  0  0  0  0  0  0  0  0  0  0
    0.0000    0.0000    0.0000 C   0  0  0  0  0  0  0  0  0  0  0  0
    0.0000    0.0000    0.0000 C   0  0  0  0  0  0  0  0  0  0  0  0
    0.0000    0.0000    0.0000 C   0  0  0  0  0  0  0  0  0  0  0  0
    0.0000    0.0000    0.0000 C   0  0  0  0  0  0  0  0  0  0  0  0
    0.0000    0.0000    0.0000 C   0  0  0  0  0  0  0  0  0  0  0  0
    0.0000    0.0000    0.0000 C   0  0  0  0  0  0  0  0  0  0  0  0
    0.0000    0.0000    0.0000 C   0  0  0  0  0  0  0  0  0  0  0  0
    0.0000    0.0000    0.0000 C   0  0  0  0  0  0  0  0  0  0  0  0
    0.0000    0.0000    0.0000 C   0  0  0  0  0  0  0  0  0  0  0  0
    0.0000    0.0000    0.0000 C   0  0  0  0  0  0  0  0  0  0  0  0
  1  2  1  0
  2  3  1  0
  2  4  1  0
  4  5  2  0
  4  6  1  0
  6  7  1  0
  7  8  1  0
  8  9  1  0
  9 10  1  0
 10 11  1  0
 11 12  1  0
 12 13  1  0
 12 14  1  0
 14 15  1  0
 12 16  1  0
 16 17  2  0
 17 18  1  0
 18 19  2  0
 19 20  1  0
 19 21  1  0
 21 22  2  0
  6 23  1  0
 23 24  2  0
 24 25  1  0
 25 26  2  0
 26 27  1  0
 27 28  2  0
  6 29  1  0
 29 30  2  0
 30 31  1  0
 31 32  2  0
 32 33  1  0
 33 34  2  0
 15  9  1  0
 22 16  1  0
 28 23  1  0
 34 29  1  0
M  END
>  <pIC50>  (56) 
8.82

>  <ChEMBL_ID>  (56) 
CHEMBL1707

>  <document_journal>  (56) 
J. Med. Chem.

>  <bao_endpoint>  (56) 
BAO_0000190

>  <potential_duplicate>  (56) 
False

>  <uo_units>  (56) 
UO_0000065

>  <canonical_smiles>  (56) 
Cl.CN(C)C(=O)C(CCN1CCC(O)(CC1)c2ccc(Cl)cc2)(c3ccccc3)c4ccccc4

>  <parent_molecule_chembl_id>  (56) 
CHEMBL841

>  <assay_type>  (56) 
B

>  <src_id>  (56) 
1

>  <ligand_efficiency>  (56) 
{u'le': u'0.35', u'bei': u'18.5', u'sei': u'20.16', u'lle': u'4.18'}

>  <standard_flag>  (56) 
True

>  <molecule_chembl_id>  (56) 
CHEMBL1707

>  <target_organism>  (56) 
Homo sapiens

>  <standard_units>  (56) 
nM

>  <record_id>  (56) 
215769

>  <document_chembl_id>  (56) 
CHEMBL1134447

>  <bao_format>  (56) 
BAO_0000357

>  <data_validity_description>  (56) 
None

>  <activity_id>  (56) 
139590

>  <standard_type>  (56) 
IC50

>  <target_chembl_id>  (56) 
CHEMBL233

>  <data_validity_comment>  (56) 
None

>  <published_value>  (56) 
1.5

>  <document_year>  (56) 
2001

>  <target_pref_name>  (56) 
Mu opioid receptor

>  <assay_chembl_id>  (56) 
CHEMBL757060

>  <standard_relation>  (56) 
=

>  <assay_description>  (56) 
Binding affinity against mu-opiate receptor (human) using [3H]DAMGO radioligand

>  <published_relation>  (56) 
=

>  <standard_value>  (56) 
1.5

>  <qudt_units>  (56) 
http://www.openphacts.org/units/Nanomolar

>  <target_tax_id>  (56) 
9606

>  <bao_label>  (56) 
single protein format

>  <published_units>  (56) 
nM

>  <pchembl_value>  (56) 
8.82

>  <published_type>  (56) 
IC50

>  <activity_comment>  (56) 
None

$$$$

     RDKit          

 31 35  0  0  0  0  0  0  0  0999 V2000
    0.0000    0.0000    0.0000 O   0  0  0  0  0  0  0  0  0  0  0  0
    0.0000    0.0000    0.0000 C   0  0  0  0  0  0  0  0  0  0  0  0
    0.0000    0.0000    0.0000 N   0  0  0  0  0  0  0  0  0  0  0  0
    0.0000    0.0000    0.0000 C   0  0  0  0  0  0  0  0  0  0  0  0
    0.0000    0.0000    0.0000 N   0  0  0  0  0  0  0  0  0  0  0  0
    0.0000    0.0000    0.0000 C   0  0  0  0  0  0  0  0  0  0  0  0
    0.0000    0.0000    0.0000 C   0  0  0  0  0  0  0  0  0  0  0  0
    0.0000    0.0000    0.0000 C   0  0  0  0  0  0  0  0  0  0  0  0
    0.0000    0.0000    0.0000 C   0  0  0  0  0  0  0  0  0  0  0  0
    0.0000    0.0000    0.0000 C   0  0  0  0  0  0  0  0  0  0  0  0
    0.0000    0.0000    0.0000 C   0  0  0  0  0  0  0  0  0  0  0  0
    0.0000    0.0000    0.0000 C   0  0  0  0  0  0  0  0  0  0  0  0
    0.0000    0.0000    0.0000 C   0  0  0  0  0  0  0  0  0  0  0  0
    0.0000    0.0000    0.0000 C   0  0  0  0  0  0  0  0  0  0  0  0
    0.0000    0.0000    0.0000 N   0  0  0  0  0  0  0  0  0  0  0  0
    0.0000    0.0000    0.0000 C   0  0  0  0  0  0  0  0  0  0  0  0
    0.0000    0.0000    0.0000 C   0  0  0  0  0  0  0  0  0  0  0  0
    0.0000    0.0000    0.0000 C   0  0  0  0  0  0  0  0  0  0  0  0
    0.0000    0.0000    0.0000 C   0  0  0  0  0  0  0  0  0  0  0  0
    0.0000    0.0000    0.0000 C   0  0  0  0  0  0  0  0  0  0  0  0
    0.0000    0.0000    0.0000 C   0  0  0  0  0  0  0  0  0  0  0  0
    0.0000    0.0000    0.0000 O   0  0  0  0  0  0  0  0  0  0  0  0
    0.0000    0.0000    0.0000 C   0  0  0  0  0  0  0  0  0  0  0  0
    0.0000    0.0000    0.0000 C   0  0  0  0  0  0  0  0  0  0  0  0
    0.0000    0.0000    0.0000 C   0  0  0  0  0  0  0  0  0  0  0  0
    0.0000    0.0000    0.0000 C   0  0  0  0  0  0  0  0  0  0  0  0
    0.0000    0.0000    0.0000 C   0  0  0  0  0  0  0  0  0  0  0  0
    0.0000    0.0000    0.0000 C   0  0  0  0  0  0  0  0  0  0  0  0
    0.0000    0.0000    0.0000 C   0  0  0  0  0  0  0  0  0  0  0  0
    0.0000    0.0000    0.0000 C   0  0  0  0  0  0  0  0  0  0  0  0
    0.0000    0.0000    0.0000 C   0  0  0  0  0  0  0  0  0  0  0  0
  1  2  2  0
  2  3  1  0
  3  4  1  0
  4  5  1  0
  5  6  1  0
  6  7  2  0
  7  8  1  0
  8  9  2  0
  9 10  1  0
 10 11  2  0
  5 12  1  0
 12 13  1  0
 13 14  1  0
 14 15  1  0
 15 16  1  0
 16 17  1  0
 17 18  2  0
 18 19  1  0
 19 20  2  0
 20 21  1  0
 21 22  1  0
 22 23  1  0
 23 24  2  0
 24 25  1  0
 25 26  2  0
 26 27  1  0
 27 28  2  0
 21 29  2  0
 15 30  1  0
 30 31  1  0
 12  2  1  0
 11  6  1  0
 31 12  1  0
 29 17  1  0
 28 23  1  0
M  END
>  <pIC50>  (57) 
7.08

>  <ChEMBL_ID>  (57) 
CHEMBL115280

>  <document_journal>  (57) 
J. Med. Chem.

>  <bao_endpoint>  (57) 
BAO_0000190

>  <potential_duplicate>  (57) 
False

>  <uo_units>  (57) 
UO_0000065

>  <canonical_smiles>  (57) 
O=C1NCN(c2ccccc2)C13CCN(Cc4cccc(Oc5ccccc5)c4)CC3

>  <parent_molecule_chembl_id>  (57) 
CHEMBL115280

>  <assay_type>  (57) 
B

>  <src_id>  (57) 
1

>  <ligand_efficiency>  (57) 
{u'le': u'0.31', u'bei': u'17.12', u'sei': u'15.8', u'lle': u'2.9'}

>  <standard_flag>  (57) 
True

>  <molecule_chembl_id>  (57) 
CHEMBL115280

>  <target_organism>  (57) 
Homo sapiens

>  <standard_units>  (57) 
nM

>  <record_id>  (57) 
215761

>  <document_chembl_id>  (57) 
CHEMBL1134447

>  <bao_format>  (57) 
BAO_0000357

>  <data_validity_description>  (57) 
None

>  <activity_id>  (57) 
141884

>  <standard_type>  (57) 
IC50

>  <target_chembl_id>  (57) 
CHEMBL233

>  <data_validity_comment>  (57) 
None

>  <published_value>  (57) 
83.5

>  <document_year>  (57) 
2001

>  <target_pref_name>  (57) 
Mu opioid receptor

>  <assay_chembl_id>  (57) 
CHEMBL757060

>  <standard_relation>  (57) 
=

>  <assay_description>  (57) 
Binding affinity against mu-opiate receptor (human) using [3H]DAMGO radioligand

>  <published_relation>  (57) 
=

>  <standard_value>  (57) 
83.5

>  <qudt_units>  (57) 
http://www.openphacts.org/units/Nanomolar

>  <target_tax_id>  (57) 
9606

>  <bao_label>  (57) 
single protein format

>  <published_units>  (57) 
nM

>  <pchembl_value>  (57) 
7.08

>  <published_type>  (57) 
IC50

>  <activity_comment>  (57) 
None

$$$$

     RDKit          

 28 32  0  0  0  0  0  0  0  0999 V2000
    0.0000    0.0000    0.0000 Cl  0  0  0  0  0  0  0  0  0  0  0  0
    0.0000    0.0000    0.0000 C   0  0  0  0  0  0  0  0  0  0  0  0
    0.0000    0.0000    0.0000 C   0  0  0  0  0  0  0  0  0  0  0  0
    0.0000    0.0000    0.0000 C   0  0  0  0  0  0  0  0  0  0  0  0
    0.0000    0.0000    0.0000 O   0  0  0  0  0  0  0  0  0  0  0  0
    0.0000    0.0000    0.0000 C   0  0  0  0  0  0  0  0  0  0  0  0
    0.0000    0.0000    0.0000 O   0  0  0  0  0  0  0  0  0  0  0  0
    0.0000    0.0000    0.0000 C   0  0  0  0  0  0  0  0  0  0  0  0
    0.0000    0.0000    0.0000 C   0  0  0  0  0  0  0  0  0  0  0  0
    0.0000    0.0000    0.0000 C   0  0  0  0  0  0  0  0  0  0  0  0
    0.0000    0.0000    0.0000 C   0  0  0  0  0  0  0  0  0  0  0  0
    0.0000    0.0000    0.0000 N   0  0  0  0  0  0  0  0  0  0  0  0
    0.0000    0.0000    0.0000 C   0  0  0  0  0  0  0  0  0  0  0  0
    0.0000    0.0000    0.0000 C   0  0  0  0  0  0  0  0  0  0  0  0
    0.0000    0.0000    0.0000 C   0  0  0  0  0  0  0  0  0  0  0  0
    0.0000    0.0000    0.0000 C   0  0  0  0  0  0  0  0  0  0  0  0
    0.0000    0.0000    0.0000 C   0  0  0  0  0  0  0  0  0  0  0  0
    0.0000    0.0000    0.0000 N   0  0  0  0  0  0  0  0  0  0  0  0
    0.0000    0.0000    0.0000 C   0  0  0  0  0  0  0  0  0  0  0  0
    0.0000    0.0000    0.0000 O   0  0  0  0  0  0  0  0  0  0  0  0
    0.0000    0.0000    0.0000 C   0  0  0  0  0  0  0  0  0  0  0  0
    0.0000    0.0000    0.0000 N   0  0  0  0  0  0  0  0  0  0  0  0
    0.0000    0.0000    0.0000 C   0  0  0  0  0  0  0  0  0  0  0  0
    0.0000    0.0000    0.0000 C   0  0  0  0  0  0  0  0  0  0  0  0
    0.0000    0.0000    0.0000 C   0  0  0  0  0  0  0  0  0  0  0  0
    0.0000    0.0000    0.0000 C   0  0  0  0  0  0  0  0  0  0  0  0
    0.0000    0.0000    0.0000 C   0  0  0  0  0  0  0  0  0  0  0  0
    0.0000    0.0000    0.0000 C   0  0  0  0  0  0  0  0  0  0  0  0
  1  2  1  0
  2  3  2  0
  3  4  1  0
  4  5  1  0
  5  6  1  0
  6  7  1  0
  7  8  1  0
  8  9  1  0
  9 10  2  0
 10 11  1  0
 11 12  1  0
 12 13  1  0
 13 14  1  0
 14 15  1  0
 15 16  1  0
 16 17  1  0
 15 18  1  0
 18 19  1  0
 19 20  2  0
 19 21  1  0
 21 22  1  0
 22 23  1  0
 23 24  2  0
 24 25  1  0
 25 26  2  0
 26 27  1  0
 27 28  2  0
 10  2  1  0
  8  4  2  0
 17 12  1  0
 28 18  1  0
 28 23  1  0
M  END
>  <pIC50>  (58) 
8.2

>  <ChEMBL_ID>  (58) 
CHEMBL325842

>  <document_journal>  (58) 
J. Med. Chem.

>  <bao_endpoint>  (58) 
BAO_0000190

>  <potential_duplicate>  (58) 
False

>  <uo_units>  (58) 
UO_0000065

>  <canonical_smiles>  (58) 
Clc1cc2OCOc2cc1CN3CCC(CC3)N4C(=O)CNc5ccccc45

>  <parent_molecule_chembl_id>  (58) 
CHEMBL325842

>  <assay_type>  (58) 
B

>  <src_id>  (58) 
1

>  <ligand_efficiency>  (58) 
{u'le': u'0.4', u'bei': u'20.51', u'sei': u'15.18', u'lle': u'5.42'}

>  <standard_flag>  (58) 
True

>  <molecule_chembl_id>  (58) 
CHEMBL325842

>  <target_organism>  (58) 
Homo sapiens

>  <standard_units>  (58) 
nM

>  <record_id>  (58) 
215781

>  <document_chembl_id>  (58) 
CHEMBL1134447

>  <bao_format>  (58) 
BAO_0000357

>  <data_validity_description>  (58) 
None

>  <activity_id>  (58) 
143197

>  <standard_type>  (58) 
IC50

>  <target_chembl_id>  (58) 
CHEMBL233

>  <data_validity_comment>  (58) 
None

>  <published_value>  (58) 
6.3

>  <document_year>  (58) 
2001

>  <target_pref_name>  (58) 
Mu opioid receptor

>  <assay_chembl_id>  (58) 
CHEMBL757060

>  <standard_relation>  (58) 
=

>  <assay_description>  (58) 
Binding affinity against mu-opiate receptor (human) using [3H]DAMGO radioligand

>  <published_relation>  (58) 
=

>  <standard_value>  (58) 
6.3

>  <qudt_units>  (58) 
http://www.openphacts.org/units/Nanomolar

>  <target_tax_id>  (58) 
9606

>  <bao_label>  (58) 
single protein format

>  <published_units>  (58) 
nM

>  <pchembl_value>  (58) 
8.2

>  <published_type>  (58) 
IC50

>  <activity_comment>  (58) 
None

$$$$

     RDKit          

 28 32  0  0  0  0  0  0  0  0999 V2000
    0.0000    0.0000    0.0000 Cl  0  0  0  0  0  0  0  0  0  0  0  0
    0.0000    0.0000    0.0000 C   0  0  0  0  0  0  0  0  0  0  0  0
    0.0000    0.0000    0.0000 C   0  0  0  0  0  0  0  0  0  0  0  0
    0.0000    0.0000    0.0000 C   0  0  0  0  0  0  0  0  0  0  0  0
    0.0000    0.0000    0.0000 O   0  0  0  0  0  0  0  0  0  0  0  0
    0.0000    0.0000    0.0000 C   0  0  0  0  0  0  0  0  0  0  0  0
    0.0000    0.0000    0.0000 O   0  0  0  0  0  0  0  0  0  0  0  0
    0.0000    0.0000    0.0000 C   0  0  0  0  0  0  0  0  0  0  0  0
    0.0000    0.0000    0.0000 C   0  0  0  0  0  0  0  0  0  0  0  0
    0.0000    0.0000    0.0000 C   0  0  0  0  0  0  0  0  0  0  0  0
    0.0000    0.0000    0.0000 C   0  0  0  0  0  0  0  0  0  0  0  0
    0.0000    0.0000    0.0000 N   0  0  0  0  0  0  0  0  0  0  0  0
    0.0000    0.0000    0.0000 C   0  0  0  0  0  0  0  0  0  0  0  0
    0.0000    0.0000    0.0000 C   0  0  0  0  0  0  0  0  0  0  0  0
    0.0000    0.0000    0.0000 C   0  0  0  0  0  0  0  0  0  0  0  0
    0.0000    0.0000    0.0000 C   0  0  0  0  0  0  0  0  0  0  0  0
    0.0000    0.0000    0.0000 C   0  0  0  0  0  0  0  0  0  0  0  0
    0.0000    0.0000    0.0000 N   0  0  0  0  0  0  0  0  0  0  0  0
    0.0000    0.0000    0.0000 C   0  0  0  0  0  0  0  0  0  0  0  0
    0.0000    0.0000    0.0000 N   0  0  0  0  0  0  0  0  0  0  0  0
    0.0000    0.0000    0.0000 C   0  0  0  0  0  0  0  0  0  0  0  0
    0.0000    0.0000    0.0000 O   0  0  0  0  0  0  0  0  0  0  0  0
    0.0000    0.0000    0.0000 C   0  0  0  0  0  0  0  0  0  0  0  0
    0.0000    0.0000    0.0000 C   0  0  0  0  0  0  0  0  0  0  0  0
    0.0000    0.0000    0.0000 C   0  0  0  0  0  0  0  0  0  0  0  0
    0.0000    0.0000    0.0000 C   0  0  0  0  0  0  0  0  0  0  0  0
    0.0000    0.0000    0.0000 C   0  0  0  0  0  0  0  0  0  0  0  0
    0.0000    0.0000    0.0000 C   0  0  0  0  0  0  0  0  0  0  0  0
  1  2  1  0
  2  3  2  0
  3  4  1  0
  4  5  1  0
  5  6  1  0
  6  7  1  0
  7  8  1  0
  8  9  1  0
  9 10  2  0
 10 11  1  0
 11 12  1  0
 12 13  1  0
 13 14  1  0
 14 15  1  0
 15 16  1  0
 16 17  1  0
 15 18  1  0
 18 19  1  0
 19 20  1  0
 20 21  1  0
 21 22  2  0
 18 23  1  0
 23 24  2  0
 24 25  1  0
 25 26  2  0
 26 27  1  0
 27 28  2  0
 10  2  1  0
  8  4  2  0
 17 12  1  0
 21 15  1  0
 28 23  1  0
M  END
>  <pIC50>  (59) 
8.7

>  <ChEMBL_ID>  (59) 
CHEMBL115652

>  <document_journal>  (59) 
J. Med. Chem.

>  <bao_endpoint>  (59) 
BAO_0000190

>  <potential_duplicate>  (59) 
False

>  <uo_units>  (59) 
UO_0000065

>  <canonical_smiles>  (59) 
Clc1cc2OCOc2cc1CN3CCC4(CC3)N(CNC4=O)c5ccccc5

>  <parent_molecule_chembl_id>  (59) 
CHEMBL115652

>  <assay_type>  (59) 
B

>  <src_id>  (59) 
1

>  <ligand_efficiency>  (59) 
{u'le': u'0.42', u'bei': u'21.75', u'sei': u'16.1', u'lle': u'5.65'}

>  <standard_flag>  (59) 
True

>  <molecule_chembl_id>  (59) 
CHEMBL115652

>  <target_organism>  (59) 
Homo sapiens

>  <standard_units>  (59) 
nM

>  <record_id>  (59) 
215750

>  <document_chembl_id>  (59) 
CHEMBL1134447

>  <bao_format>  (59) 
BAO_0000357

>  <data_validity_description>  (59) 
None

>  <activity_id>  (59) 
143202

>  <standard_type>  (59) 
IC50

>  <target_chembl_id>  (59) 
CHEMBL233

>  <data_validity_comment>  (59) 
None

>  <published_value>  (59) 
2

>  <document_year>  (59) 
2001

>  <target_pref_name>  (59) 
Mu opioid receptor

>  <assay_chembl_id>  (59) 
CHEMBL757060

>  <standard_relation>  (59) 
=

>  <assay_description>  (59) 
Binding affinity against mu-opiate receptor (human) using [3H]DAMGO radioligand

>  <published_relation>  (59) 
=

>  <standard_value>  (59) 
2

>  <qudt_units>  (59) 
http://www.openphacts.org/units/Nanomolar

>  <target_tax_id>  (59) 
9606

>  <bao_label>  (59) 
single protein format

>  <published_units>  (59) 
nM

>  <pchembl_value>  (59) 
8.7

>  <published_type>  (59) 
IC50

>  <activity_comment>  (59) 
None

$$$$

     RDKit          

 36 40  0  0  0  0  0  0  0  0999 V2000
    0.0000    0.0000    0.0000 C   0  0  0  0  0  0  0  0  0  0  0  0
    0.0000    0.0000    0.0000 N   0  0  0  0  0  0  0  0  0  0  0  0
    0.0000    0.0000    0.0000 C   0  0  0  0  0  0  0  0  0  0  0  0
    0.0000    0.0000    0.0000 O   0  0  0  0  0  0  0  0  0  0  0  0
    0.0000    0.0000    0.0000 C   0  0  0  0  0  0  0  0  0  0  0  0
    0.0000    0.0000    0.0000 N   0  0  0  0  0  0  0  0  0  0  0  0
    0.0000    0.0000    0.0000 C   0  0  0  0  0  0  0  0  0  0  0  0
    0.0000    0.0000    0.0000 N   0  0  0  0  0  0  0  0  0  0  0  0
    0.0000    0.0000    0.0000 C   0  0  0  0  0  0  0  0  0  0  0  0
    0.0000    0.0000    0.0000 C   0  0  0  0  0  0  0  0  0  0  0  0
    0.0000    0.0000    0.0000 C   0  0  0  0  0  0  0  0  0  0  0  0
    0.0000    0.0000    0.0000 C   0  0  0  0  0  0  0  0  0  0  0  0
    0.0000    0.0000    0.0000 C   0  0  0  0  0  0  0  0  0  0  0  0
    0.0000    0.0000    0.0000 C   0  0  0  0  0  0  0  0  0  0  0  0
    0.0000    0.0000    0.0000 C   0  0  0  0  0  0  0  0  0  0  0  0
    0.0000    0.0000    0.0000 C   0  0  0  0  0  0  0  0  0  0  0  0
    0.0000    0.0000    0.0000 C   0  0  0  0  0  0  0  0  0  0  0  0
    0.0000    0.0000    0.0000 N   0  0  0  0  0  0  0  0  0  0  0  0
    0.0000    0.0000    0.0000 C   0  0  0  0  0  0  0  0  0  0  0  0
    0.0000    0.0000    0.0000 C   0  0  0  0  0  0  0  0  0  0  0  0
    0.0000    0.0000    0.0000 C   0  0  0  0  0  0  0  0  0  0  0  0
    0.0000    0.0000    0.0000 O   0  0  0  0  0  0  0  0  0  0  0  0
    0.0000    0.0000    0.0000 O   0  0  0  0  0  0  0  0  0  0  0  0
    0.0000    0.0000    0.0000 C   0  0  0  0  0  0  0  0  0  0  0  0
    0.0000    0.0000    0.0000 C   0  0  0  0  0  0  0  0  0  0  0  0
    0.0000    0.0000    0.0000 C   0  0  0  0  0  0  0  0  0  0  0  0
    0.0000    0.0000    0.0000 C   0  0  0  0  0  0  0  0  0  0  0  0
    0.0000    0.0000    0.0000 O   0  0  0  0  0  0  0  0  0  0  0  0
    0.0000    0.0000    0.0000 C   0  0  0  0  0  0  0  0  0  0  0  0
    0.0000    0.0000    0.0000 O   0  0  0  0  0  0  0  0  0  0  0  0
    0.0000    0.0000    0.0000 C   0  0  0  0  0  0  0  0  0  0  0  0
    0.0000    0.0000    0.0000 C   0  0  0  0  0  0  0  0  0  0  0  0
    0.0000    0.0000    0.0000 C   0  0  0  0  0  0  0  0  0  0  0  0
    0.0000    0.0000    0.0000 Cl  0  0  0  0  0  0  0  0  0  0  0  0
    0.0000    0.0000    0.0000 C   0  0  0  0  0  0  0  0  0  0  0  0
    0.0000    0.0000    0.0000 O   0  0  0  0  0  0  0  0  0  0  0  0
  1  2  1  0
  2  3  1  0
  3  4  2  0
  3  5  1  0
  5  6  1  0
  6  7  1  0
  7  8  1  0
  8  9  1  0
  9 10  2  0
 10 11  1  0
 11 12  2  0
 12 13  1  0
 13 14  2  0
  8 15  1  0
 15 16  1  0
 16 17  1  0
 17 18  1  0
 18 19  1  0
 19 20  1  0
 18 21  1  0
 21 22  2  0
 21 23  1  0
 23 24  1  0
 24 25  1  0
 25 26  2  0
 26 27  1  0
 27 28  1  0
 28 29  1  0
 29 30  1  0
 30 31  1  0
 31 32  1  0
 32 33  2  0
 33 34  1  0
 15 35  1  0
 35 36  2  0
 35  6  1  0
 14  9  1  0
 20 15  1  0
 33 25  1  0
 31 27  2  0
M  END
>  <pIC50>  (60) 
6.75

>  <ChEMBL_ID>  (60) 
CHEMBL114825

>  <document_journal>  (60) 
J. Med. Chem.

>  <bao_endpoint>  (60) 
BAO_0000190

>  <potential_duplicate>  (60) 
True

>  <uo_units>  (60) 
UO_0000065

>  <canonical_smiles>  (60) 
CNC(=O)CN1CN(c2ccccc2)C3(CCN(CC3)C(=O)OCc4cc5OCOc5cc4Cl)C1=O

>  <parent_molecule_chembl_id>  (60) 
CHEMBL114825

>  <assay_type>  (60) 
B

>  <src_id>  (60) 
1

>  <ligand_efficiency>  (60) 
{u'le': u'0.26', u'bei': u'13.1', u'sei': u'6.7', u'lle': u'4.53'}

>  <standard_flag>  (60) 
True

>  <molecule_chembl_id>  (60) 
CHEMBL114825

>  <target_organism>  (60) 
Homo sapiens

>  <standard_units>  (60) 
nM

>  <record_id>  (60) 
215777

>  <document_chembl_id>  (60) 
CHEMBL1134447

>  <bao_format>  (60) 
BAO_0000357

>  <data_validity_description>  (60) 
None

>  <activity_id>  (60) 
144369

>  <standard_type>  (60) 
IC50

>  <target_chembl_id>  (60) 
CHEMBL233

>  <data_validity_comment>  (60) 
None

>  <published_value>  (60) 
179

>  <document_year>  (60) 
2001

>  <target_pref_name>  (60) 
Mu opioid receptor

>  <assay_chembl_id>  (60) 
CHEMBL757060

>  <standard_relation>  (60) 
=

>  <assay_description>  (60) 
Binding affinity against mu-opiate receptor (human) using [3H]DAMGO radioligand

>  <published_relation>  (60) 
=

>  <standard_value>  (60) 
179

>  <qudt_units>  (60) 
http://www.openphacts.org/units/Nanomolar

>  <target_tax_id>  (60) 
9606

>  <bao_label>  (60) 
single protein format

>  <published_units>  (60) 
nM

>  <pchembl_value>  (60) 
6.75

>  <published_type>  (60) 
IC50

>  <activity_comment>  (60) 
None

$$$$

     RDKit          

 28 31  0  0  0  0  0  0  0  0999 V2000
    0.0000    0.0000    0.0000 O   0  0  0  0  0  0  0  0  0  0  0  0
    0.0000    0.0000    0.0000 C   0  0  0  0  0  0  0  0  0  0  0  0
    0.0000    0.0000    0.0000 N   0  0  0  0  0  0  0  0  0  0  0  0
    0.0000    0.0000    0.0000 C   0  0  0  0  0  0  0  0  0  0  0  0
    0.0000    0.0000    0.0000 C   0  0  0  0  0  0  0  0  0  0  0  0
    0.0000    0.0000    0.0000 C   0  0  0  0  0  0  0  0  0  0  0  0
    0.0000    0.0000    0.0000 C   0  0  0  0  0  0  0  0  0  0  0  0
    0.0000    0.0000    0.0000 C   0  0  0  0  0  0  0  0  0  0  0  0
    0.0000    0.0000    0.0000 C   0  0  0  0  0  0  0  0  0  0  0  0
    0.0000    0.0000    0.0000 C   0  0  0  0  0  0  0  0  0  0  0  0
    0.0000    0.0000    0.0000 C   0  0  0  0  0  0  0  0  0  0  0  0
    0.0000    0.0000    0.0000 C   0  0  0  0  0  0  0  0  0  0  0  0
    0.0000    0.0000    0.0000 C   0  0  0  0  0  0  0  0  0  0  0  0
    0.0000    0.0000    0.0000 C   0  0  0  0  0  0  0  0  0  0  0  0
    0.0000    0.0000    0.0000 N   0  0  0  0  0  0  0  0  0  0  0  0
    0.0000    0.0000    0.0000 C   0  0  0  0  0  0  0  0  0  0  0  0
    0.0000    0.0000    0.0000 C   0  0  0  0  0  0  0  0  0  0  0  0
    0.0000    0.0000    0.0000 N   0  0  0  0  0  0  0  0  0  0  0  0
    0.0000    0.0000    0.0000 C   0  0  0  0  0  0  0  0  0  0  0  0
    0.0000    0.0000    0.0000 C   0  0  0  0  0  0  0  0  0  0  0  0
    0.0000    0.0000    0.0000 C   0  0  0  0  0  0  0  0  0  0  0  0
    0.0000    0.0000    0.0000 C   0  0  0  0  0  0  0  0  0  0  0  0
    0.0000    0.0000    0.0000 C   0  0  0  0  0  0  0  0  0  0  0  0
    0.0000    0.0000    0.0000 C   0  0  0  0  0  0  0  0  0  0  0  0
    0.0000    0.0000    0.0000 C   0  0  0  0  0  0  0  0  0  0  0  0
    0.0000    0.0000    0.0000 C   0  0  0  0  0  0  0  0  0  0  0  0
    0.0000    0.0000    0.0000 C   0  0  0  0  0  0  0  0  0  0  0  0
    0.0000    0.0000    0.0000 C   0  0  0  0  0  0  0  0  0  0  0  0
  1  2  2  0
  2  3  1  0
  3  4  1  0
  4  5  2  0
  5  6  1  0
  6  7  2  0
  7  8  1  0
  8  9  2  0
  9 10  1  0
 10 11  2  0
 11 12  1  0
 12 13  2  0
 12 14  1  0
 14 15  3  0
  3 16  1  0
 16 17  1  0
 17 18  1  0
 18 19  1  0
 19 20  1  0
 20 21  1  0
 21 22  1  0
 16 23  1  0
 23 24  2  0
 24 25  1  0
 25 26  2  0
 26 27  1  0
 27 28  2  0
  7  2  1  0
 13  8  1  0
 22 18  1  0
 28 23  1  0
M  END
>  <pIC50>  (61) 
5.37

>  <ChEMBL_ID>  (61) 
CHEMBL64809

>  <document_journal>  (61) 
Bioorg. Med. Chem. Lett.

>  <bao_endpoint>  (61) 
BAO_0000190

>  <potential_duplicate>  (61) 
False

>  <uo_units>  (61) 
UO_0000065

>  <canonical_smiles>  (61) 
O=C1N(C=CC=C1c2cccc(c2)C#N)C(CN3CCCC3)c4ccccc4

>  <parent_molecule_chembl_id>  (61) 
CHEMBL64809

>  <assay_type>  (61) 
B

>  <src_id>  (61) 
1

>  <ligand_efficiency>  (61) 
{u'le': u'0.26', u'bei': u'14.53', u'sei': u'11.34', u'lle': u'1.92'}

>  <standard_flag>  (61) 
True

>  <molecule_chembl_id>  (61) 
CHEMBL64809

>  <target_organism>  (61) 
Homo sapiens

>  <standard_units>  (61) 
nM

>  <record_id>  (61) 
105341

>  <document_chembl_id>  (61) 
CHEMBL1135372

>  <bao_format>  (61) 
BAO_0000357

>  <data_validity_description>  (61) 
None

>  <activity_id>  (61) 
147386

>  <standard_type>  (61) 
IC50

>  <target_chembl_id>  (61) 
CHEMBL233

>  <data_validity_comment>  (61) 
None

>  <published_value>  (61) 
4280

>  <document_year>  (61) 
2002

>  <target_pref_name>  (61) 
Mu opioid receptor

>  <assay_chembl_id>  (61) 
CHEMBL749747

>  <standard_relation>  (61) 
=

>  <assay_description>  (61) 
Binding affinity towards mu opioid receptor by the displacement of [125I]Enkephalin

>  <published_relation>  (61) 
=

>  <standard_value>  (61) 
4280

>  <qudt_units>  (61) 
http://www.openphacts.org/units/Nanomolar

>  <target_tax_id>  (61) 
9606

>  <bao_label>  (61) 
single protein format

>  <published_units>  (61) 
nM

>  <pchembl_value>  (61) 
5.37

>  <published_type>  (61) 
IC50

>  <activity_comment>  (61) 
None

$$$$

     RDKit          

 25 28  0  0  0  0  0  0  0  0999 V2000
    0.0000    0.0000    0.0000 O   0  0  0  0  0  0  0  0  0  0  0  0
    0.0000    0.0000    0.0000 C   0  0  0  0  0  0  0  0  0  0  0  0
    0.0000    0.0000    0.0000 N   0  0  0  0  0  0  0  0  0  0  0  0
    0.0000    0.0000    0.0000 N   0  0  0  0  0  0  0  0  0  0  0  0
    0.0000    0.0000    0.0000 C   0  0  0  0  0  0  0  0  0  0  0  0
    0.0000    0.0000    0.0000 C   0  0  0  0  0  0  0  0  0  0  0  0
    0.0000    0.0000    0.0000 C   0  0  0  0  0  0  0  0  0  0  0  0
    0.0000    0.0000    0.0000 C   0  0  0  0  0  0  0  0  0  0  0  0
    0.0000    0.0000    0.0000 C   0  0  0  0  0  0  0  0  0  0  0  0
    0.0000    0.0000    0.0000 C   0  0  0  0  0  0  0  0  0  0  0  0
    0.0000    0.0000    0.0000 C   0  0  0  0  0  0  0  0  0  0  0  0
    0.0000    0.0000    0.0000 C   0  0  0  0  0  0  0  0  0  0  0  0
    0.0000    0.0000    0.0000 C   0  0  0  0  0  0  0  0  0  0  0  0
    0.0000    0.0000    0.0000 C   0  0  0  0  0  0  0  0  0  0  0  0
    0.0000    0.0000    0.0000 C   0  0  0  0  0  0  0  0  0  0  0  0
    0.0000    0.0000    0.0000 N   0  0  0  0  0  0  0  0  0  0  0  0
    0.0000    0.0000    0.0000 C   0  0  0  0  0  0  0  0  0  0  0  0
    0.0000    0.0000    0.0000 C   0  0  0  0  0  0  0  0  0  0  0  0
    0.0000    0.0000    0.0000 C   0  0  0  0  0  0  0  0  0  0  0  0
    0.0000    0.0000    0.0000 C   0  0  0  0  0  0  0  0  0  0  0  0
    0.0000    0.0000    0.0000 C   0  0  0  0  0  0  0  0  0  0  0  0
    0.0000    0.0000    0.0000 C   0  0  0  0  0  0  0  0  0  0  0  0
    0.0000    0.0000    0.0000 C   0  0  0  0  0  0  0  0  0  0  0  0
    0.0000    0.0000    0.0000 C   0  0  0  0  0  0  0  0  0  0  0  0
    0.0000    0.0000    0.0000 C   0  0  0  0  0  0  0  0  0  0  0  0
  1  2  2  0
  2  3  1  0
  4  2  1  0
  5  4  1  0
  4  6  1  0
  7  5  1  0
  5  8  2  0
  6  9  1  0
 10  6  1  0
 11  7  2  0
  3  8  1  0
  8 12  1  0
  9 13  1  0
 14 10  1  0
 15 11  1  0
 12 15  2  0
 13 16  1  0
 16 14  1  0
 16 17  1  0
 17 18  1  0
 18 19  1  0
 20 18  1  0
 19 21  1  0
 22 20  1  0
 21 23  1  0
 24 22  1  0
 23 25  1  0
 25 24  1  0
M  END
>  <pIC50>  (62) 
6.11

>  <ChEMBL_ID>  (62) 
CHEMBL146191

>  <document_journal>  (62) 
J. Med. Chem.

>  <bao_endpoint>  (62) 
BAO_0000190

>  <potential_duplicate>  (62) 
False

>  <uo_units>  (62) 
UO_0000065

>  <canonical_smiles>  (62) 
Oc1nc2ccccc2n1C3CCN(CC4CCCCCCC4)CC3

>  <parent_molecule_chembl_id>  (62) 
CHEMBL146191

>  <assay_type>  (62) 
B

>  <src_id>  (62) 
1

>  <ligand_efficiency>  (62) 
{u'le': u'0.33', u'bei': u'17.89', u'sei': u'14.79', u'lle': u'1.05'}

>  <standard_flag>  (62) 
True

>  <molecule_chembl_id>  (62) 
CHEMBL146191

>  <target_organism>  (62) 
Homo sapiens

>  <standard_units>  (62) 
nM

>  <record_id>  (62) 
287599

>  <document_chembl_id>  (62) 
CHEMBL1132115

>  <bao_format>  (62) 
BAO_0000219

>  <data_validity_description>  (62) 
None

>  <activity_id>  (62) 
147795

>  <standard_type>  (62) 
IC50

>  <target_chembl_id>  (62) 
CHEMBL233

>  <data_validity_comment>  (62) 
None

>  <published_value>  (62) 
780

>  <document_year>  (62) 
1999

>  <target_pref_name>  (62) 
Mu opioid receptor

>  <assay_chembl_id>  (62) 
CHEMBL753179

>  <standard_relation>  (62) 
=

>  <assay_description>  (62) 
Inhibition of [3H]diprenorphine binding to human Opioid receptor mu 1 in CHO cells

>  <published_relation>  (62) 
=

>  <standard_value>  (62) 
780

>  <qudt_units>  (62) 
http://www.openphacts.org/units/Nanomolar

>  <target_tax_id>  (62) 
9606

>  <bao_label>  (62) 
cell-based format

>  <published_units>  (62) 
nM

>  <pchembl_value>  (62) 
6.11

>  <published_type>  (62) 
IC50

>  <activity_comment>  (62) 
None

$$$$

     RDKit          

 28 31  0  0  0  0  0  0  0  0999 V2000
    0.0000    0.0000    0.0000 C   0  0  0  0  0  0  0  0  0  0  0  0
    0.0000    0.0000    0.0000 O   0  0  0  0  0  0  0  0  0  0  0  0
    0.0000    0.0000    0.0000 C   0  0  0  0  0  0  0  0  0  0  0  0
    0.0000    0.0000    0.0000 C   0  0  0  0  0  0  0  0  0  0  0  0
    0.0000    0.0000    0.0000 C   0  0  0  0  0  0  0  0  0  0  0  0
    0.0000    0.0000    0.0000 C   0  0  0  0  0  0  0  0  0  0  0  0
    0.0000    0.0000    0.0000 C   0  0  0  0  0  0  0  0  0  0  0  0
    0.0000    0.0000    0.0000 C   0  0  0  0  0  0  0  0  0  0  0  0
    0.0000    0.0000    0.0000 C   0  0  0  0  0  0  0  0  0  0  0  0
    0.0000    0.0000    0.0000 C   0  0  0  0  0  0  0  0  0  0  0  0
    0.0000    0.0000    0.0000 C   0  0  0  0  0  0  0  0  0  0  0  0
    0.0000    0.0000    0.0000 C   0  0  0  0  0  0  0  0  0  0  0  0
    0.0000    0.0000    0.0000 N   0  0  0  0  0  0  0  0  0  0  0  0
    0.0000    0.0000    0.0000 C   0  0  0  0  0  0  0  0  0  0  0  0
    0.0000    0.0000    0.0000 C   0  0  0  0  0  0  0  0  0  0  0  0
    0.0000    0.0000    0.0000 N   0  0  0  0  0  0  0  0  0  0  0  0
    0.0000    0.0000    0.0000 C   0  0  0  0  0  0  0  0  0  0  0  0
    0.0000    0.0000    0.0000 C   0  0  0  0  0  0  0  0  0  0  0  0
    0.0000    0.0000    0.0000 C   0  0  0  0  0  0  0  0  0  0  0  0
    0.0000    0.0000    0.0000 C   0  0  0  0  0  0  0  0  0  0  0  0
    0.0000    0.0000    0.0000 C   0  0  0  0  0  0  0  0  0  0  0  0
    0.0000    0.0000    0.0000 C   0  0  0  0  0  0  0  0  0  0  0  0
    0.0000    0.0000    0.0000 C   0  0  0  0  0  0  0  0  0  0  0  0
    0.0000    0.0000    0.0000 C   0  0  0  0  0  0  0  0  0  0  0  0
    0.0000    0.0000    0.0000 C   0  0  0  0  0  0  0  0  0  0  0  0
    0.0000    0.0000    0.0000 C   0  0  0  0  0  0  0  0  0  0  0  0
    0.0000    0.0000    0.0000 C   0  0  0  0  0  0  0  0  0  0  0  0
    0.0000    0.0000    0.0000 O   0  0  0  0  0  0  0  0  0  0  0  0
  1  2  1  0
  2  3  1  0
  3  4  2  0
  4  5  1  0
  5  6  2  0
  6  7  1  0
  7  8  2  0
  8  9  1  0
  9 10  2  0
 10 11  1  0
 11 12  2  0
 12 13  1  0
 13 14  1  0
 14 15  1  0
 15 16  1  0
 16 17  1  0
 17 18  1  0
 18 19  1  0
 19 20  1  0
 14 21  1  0
 21 22  2  0
 22 23  1  0
 23 24  2  0
 24 25  1  0
 25 26  2  0
 13 27  1  0
 27 28  2  0
  8  3  1  0
 27  9  1  0
 20 16  1  0
 26 21  1  0
M  END
>  <pIC50>  (63) 
5.92

>  <ChEMBL_ID>  (63) 
CHEMBL304263

>  <document_journal>  (63) 
Bioorg. Med. Chem. Lett.

>  <bao_endpoint>  (63) 
BAO_0000190

>  <potential_duplicate>  (63) 
False

>  <uo_units>  (63) 
UO_0000065

>  <canonical_smiles>  (63) 
COc1ccccc1C2=CC=CN(C(CN3CCCC3)c4ccccc4)C2=O

>  <parent_molecule_chembl_id>  (63) 
CHEMBL304263

>  <assay_type>  (63) 
B

>  <src_id>  (63) 
1

>  <ligand_efficiency>  (63) 
{u'le': u'0.29', u'bei': u'15.81', u'sei': u'18.06', u'lle': u'2.36'}

>  <standard_flag>  (63) 
True

>  <molecule_chembl_id>  (63) 
CHEMBL304263

>  <target_organism>  (63) 
Homo sapiens

>  <standard_units>  (63) 
nM

>  <record_id>  (63) 
105345

>  <document_chembl_id>  (63) 
CHEMBL1135372

>  <bao_format>  (63) 
BAO_0000357

>  <data_validity_description>  (63) 
None

>  <activity_id>  (63) 
149716

>  <standard_type>  (63) 
IC50

>  <target_chembl_id>  (63) 
CHEMBL233

>  <data_validity_comment>  (63) 
None

>  <published_value>  (63) 
1200

>  <document_year>  (63) 
2002

>  <target_pref_name>  (63) 
Mu opioid receptor

>  <assay_chembl_id>  (63) 
CHEMBL749747

>  <standard_relation>  (63) 
=

>  <assay_description>  (63) 
Binding affinity towards mu opioid receptor by the displacement of [125I]Enkephalin

>  <published_relation>  (63) 
=

>  <standard_value>  (63) 
1200

>  <qudt_units>  (63) 
http://www.openphacts.org/units/Nanomolar

>  <target_tax_id>  (63) 
9606

>  <bao_label>  (63) 
single protein format

>  <published_units>  (63) 
nM

>  <pchembl_value>  (63) 
5.92

>  <published_type>  (63) 
IC50

>  <activity_comment>  (63) 
None

$$$$

     RDKit          

 30 34  0  0  0  0  0  0  0  0999 V2000
    0.0000    0.0000    0.0000 O   0  0  0  0  0  0  0  0  0  0  0  0
    0.0000    0.0000    0.0000 C   0  0  0  0  0  0  0  0  0  0  0  0
    0.0000    0.0000    0.0000 N   0  0  0  0  0  0  0  0  0  0  0  0
    0.0000    0.0000    0.0000 C   0  0  0  0  0  0  0  0  0  0  0  0
    0.0000    0.0000    0.0000 C   0  0  0  0  0  0  0  0  0  0  0  0
    0.0000    0.0000    0.0000 C   0  0  0  0  0  0  0  0  0  0  0  0
    0.0000    0.0000    0.0000 C   0  0  0  0  0  0  0  0  0  0  0  0
    0.0000    0.0000    0.0000 C   0  0  0  0  0  0  0  0  0  0  0  0
    0.0000    0.0000    0.0000 C   0  0  0  0  0  0  0  0  0  0  0  0
    0.0000    0.0000    0.0000 C   0  0  0  0  0  0  0  0  0  0  0  0
    0.0000    0.0000    0.0000 C   0  0  0  0  0  0  0  0  0  0  0  0
    0.0000    0.0000    0.0000 C   0  0  0  0  0  0  0  0  0  0  0  0
    0.0000    0.0000    0.0000 C   0  0  0  0  0  0  0  0  0  0  0  0
    0.0000    0.0000    0.0000 C   0  0  0  0  0  0  0  0  0  0  0  0
    0.0000    0.0000    0.0000 C   0  0  0  0  0  0  0  0  0  0  0  0
    0.0000    0.0000    0.0000 C   0  0  0  0  0  0  0  0  0  0  0  0
    0.0000    0.0000    0.0000 C   0  0  0  0  0  0  0  0  0  0  0  0
    0.0000    0.0000    0.0000 C   0  0  0  0  0  0  0  0  0  0  0  0
    0.0000    0.0000    0.0000 C   0  0  0  0  0  0  0  0  0  0  0  0
    0.0000    0.0000    0.0000 N   0  0  0  0  0  0  0  0  0  0  0  0
    0.0000    0.0000    0.0000 C   0  0  0  0  0  0  0  0  0  0  0  0
    0.0000    0.0000    0.0000 C   0  0  0  0  0  0  0  0  0  0  0  0
    0.0000    0.0000    0.0000 C   0  0  0  0  0  0  0  0  0  0  0  0
    0.0000    0.0000    0.0000 C   0  0  0  0  0  0  0  0  0  0  0  0
    0.0000    0.0000    0.0000 C   0  0  0  0  0  0  0  0  0  0  0  0
    0.0000    0.0000    0.0000 C   0  0  0  0  0  0  0  0  0  0  0  0
    0.0000    0.0000    0.0000 C   0  0  0  0  0  0  0  0  0  0  0  0
    0.0000    0.0000    0.0000 C   0  0  0  0  0  0  0  0  0  0  0  0
    0.0000    0.0000    0.0000 C   0  0  0  0  0  0  0  0  0  0  0  0
    0.0000    0.0000    0.0000 C   0  0  0  0  0  0  0  0  0  0  0  0
  1  2  2  0
  2  3  1  0
  3  4  1  0
  4  5  2  0
  5  6  1  0
  6  7  2  0
  7  8  1  0
  8  9  2  0
  9 10  1  0
 10 11  2  0
 11 12  1  0
 12 13  2  0
 13 14  1  0
 14 15  2  0
 15 16  1  0
 16 17  2  0
  3 18  1  0
 18 19  1  0
 19 20  1  0
 20 21  1  0
 21 22  1  0
 22 23  1  0
 23 24  1  0
 18 25  1  0
 25 26  2  0
 26 27  1  0
 27 28  2  0
 28 29  1  0
 29 30  2  0
  7  2  1  0
 17  8  1  0
 16 11  1  0
 24 20  1  0
 30 25  1  0
M  END
>  <pIC50>  (64) 
5.57

>  <ChEMBL_ID>  (64) 
CHEMBL304404

>  <document_journal>  (64) 
Bioorg. Med. Chem. Lett.

>  <bao_endpoint>  (64) 
BAO_0000190

>  <potential_duplicate>  (64) 
False

>  <uo_units>  (64) 
UO_0000065

>  <canonical_smiles>  (64) 
O=C1N(C=CC=C1c2ccc3ccccc3c2)C(CN4CCCC4)c5ccccc5

>  <parent_molecule_chembl_id>  (64) 
CHEMBL304404

>  <assay_type>  (64) 
B

>  <src_id>  (64) 
1

>  <ligand_efficiency>  (64) 
{u'le': u'0.25', u'bei': u'14.12', u'sei': u'23.66', u'lle': u'1.09'}

>  <standard_flag>  (64) 
True

>  <molecule_chembl_id>  (64) 
CHEMBL304404

>  <target_organism>  (64) 
Homo sapiens

>  <standard_units>  (64) 
nM

>  <record_id>  (64) 
105349

>  <document_chembl_id>  (64) 
CHEMBL1135372

>  <bao_format>  (64) 
BAO_0000357

>  <data_validity_description>  (64) 
None

>  <activity_id>  (64) 
152163

>  <standard_type>  (64) 
IC50

>  <target_chembl_id>  (64) 
CHEMBL233

>  <data_validity_comment>  (64) 
None

>  <published_value>  (64) 
2680

>  <document_year>  (64) 
2002

>  <target_pref_name>  (64) 
Mu opioid receptor

>  <assay_chembl_id>  (64) 
CHEMBL749747

>  <standard_relation>  (64) 
=

>  <assay_description>  (64) 
Binding affinity towards mu opioid receptor by the displacement of [125I]Enkephalin

>  <published_relation>  (64) 
=

>  <standard_value>  (64) 
2680

>  <qudt_units>  (64) 
http://www.openphacts.org/units/Nanomolar

>  <target_tax_id>  (64) 
9606

>  <bao_label>  (64) 
single protein format

>  <published_units>  (64) 
nM

>  <pchembl_value>  (64) 
5.57

>  <published_type>  (64) 
IC50

>  <activity_comment>  (64) 
None

$$$$

     RDKit          

 29 32  0  0  0  0  0  0  0  0999 V2000
    0.0000    0.0000    0.0000 C   0  0  0  0  0  0  0  0  0  0  0  0
    0.0000    0.0000    0.0000 C   0  0  0  0  0  0  0  0  0  0  0  0
    0.0000    0.0000    0.0000 N   0  0  0  0  0  0  0  0  0  0  0  0
    0.0000    0.0000    0.0000 C   0  0  0  0  0  0  0  0  0  0  0  0
    0.0000    0.0000    0.0000 O   0  0  0  0  0  0  0  0  0  0  0  0
    0.0000    0.0000    0.0000 N   0  0  0  0  0  0  0  0  0  0  0  0
    0.0000    0.0000    0.0000 C   0  0  0  0  0  0  0  0  0  0  0  0
    0.0000    0.0000    0.0000 C   0  0  0  0  0  0  0  0  0  0  0  0
    0.0000    0.0000    0.0000 C   0  0  0  0  0  0  0  0  0  0  0  0
    0.0000    0.0000    0.0000 N   0  0  0  0  0  0  0  0  0  0  0  0
    0.0000    0.0000    0.0000 C   0  0  0  0  0  0  0  0  0  0  0  0
    0.0000    0.0000    0.0000 C   0  0  0  0  0  0  0  0  0  0  0  0
    0.0000    0.0000    0.0000 C   0  0  0  0  0  0  0  0  0  0  0  0
    0.0000    0.0000    0.0000 C   0  0  0  0  0  0  0  0  0  0  0  0
    0.0000    0.0000    0.0000 C   0  0  0  0  0  0  0  0  0  0  0  0
    0.0000    0.0000    0.0000 C   0  0  0  0  0  0  0  0  0  0  0  0
    0.0000    0.0000    0.0000 C   0  0  0  0  0  0  0  0  0  0  0  0
    0.0000    0.0000    0.0000 C   0  0  0  0  0  0  0  0  0  0  0  0
    0.0000    0.0000    0.0000 C   0  0  0  0  0  0  0  0  0  0  0  0
    0.0000    0.0000    0.0000 C   0  0  0  0  0  0  0  0  0  0  0  0
    0.0000    0.0000    0.0000 C   0  0  0  0  0  0  0  0  0  0  0  0
    0.0000    0.0000    0.0000 C   0  0  0  0  0  0  0  0  0  0  0  0
    0.0000    0.0000    0.0000 O   0  0  0  0  0  0  0  0  0  0  0  0
    0.0000    0.0000    0.0000 C   0  0  0  0  0  0  0  0  0  0  0  0
    0.0000    0.0000    0.0000 C   0  0  0  0  0  0  0  0  0  0  0  0
    0.0000    0.0000    0.0000 C   0  0  0  0  0  0  0  0  0  0  0  0
    0.0000    0.0000    0.0000 C   0  0  0  0  0  0  0  0  0  0  0  0
    0.0000    0.0000    0.0000 C   0  0  0  0  0  0  0  0  0  0  0  0
    0.0000    0.0000    0.0000 C   0  0  0  0  0  0  0  0  0  0  0  0
  1  2  1  0
  2  3  1  0
  3  4  1  0
  4  5  2  0
  4  6  1  0
  6  7  1  0
  7  8  1  0
  8  9  1  0
  9 10  1  0
 10 11  1  0
 11 12  1  0
 12 13  1  0
 13 14  1  0
 14 15  1  0
 15 16  1  0
 16 17  1  0
 17 18  1  0
 18 19  1  0
 10 20  1  0
 20 21  1  0
 21 22  1  0
 22 23  1  0
  6 24  1  0
 24 25  2  0
 25 26  1  0
 26 27  2  0
 27 28  1  0
 28 29  2  0
 29  3  1  0
 21  7  1  0
 19 12  1  0
 29 24  1  0
M  END
>  <pIC50>  (65) 
5.565

>  <ChEMBL_ID>  (65) 
CHEMBL357076

>  <document_journal>  (65) 
J. Med. Chem.

>  <bao_endpoint>  (65) 
BAO_0000190

>  <potential_duplicate>  (65) 
False

>  <uo_units>  (65) 
UO_0000065

>  <canonical_smiles>  (65) 
CCN1C(=O)N([C@@H]2CCN(CC3CCCCCCC3)C[C@H]2CO)c4ccccc14

>  <parent_molecule_chembl_id>  (65) 
CHEMBL357076

>  <assay_type>  (65) 
B

>  <src_id>  (65) 
1

>  <ligand_efficiency>  (65) 
{u'le': u'0.27', u'bei': u'14.16', u'sei': u'12.03', u'lle': u'1.54'}

>  <standard_flag>  (65) 
True

>  <molecule_chembl_id>  (65) 
CHEMBL357076

>  <target_organism>  (65) 
Homo sapiens

>  <standard_units>  (65) 
nM

>  <record_id>  (65) 
287602

>  <document_chembl_id>  (65) 
CHEMBL1132115

>  <bao_format>  (65) 
BAO_0000219

>  <data_validity_description>  (65) 
None

>  <activity_id>  (65) 
152557

>  <standard_type>  (65) 
IC50

>  <target_chembl_id>  (65) 
CHEMBL233

>  <data_validity_comment>  (65) 
None

>  <published_value>  (65) 
2200

>  <document_year>  (65) 
1999

>  <target_pref_name>  (65) 
Mu opioid receptor

>  <assay_chembl_id>  (65) 
CHEMBL749745

>  <standard_relation>  (65) 
=

>  <assay_description>  (65) 
Binding affinity in CHO cells stably expressing cloned human Opioid receptor mu 1 by displacing diprenorphine

>  <published_relation>  (65) 
=

>  <standard_value>  (65) 
2200

>  <qudt_units>  (65) 
http://www.openphacts.org/units/Nanomolar

>  <target_tax_id>  (65) 
9606

>  <bao_label>  (65) 
cell-based format

>  <published_units>  (65) 
nM

>  <pchembl_value>  (65) 
5.66

>  <published_type>  (65) 
IC50

>  <activity_comment>  (65) 
None

$$$$

     RDKit          

 30 33  0  0  0  0  0  0  0  0999 V2000
    0.0000    0.0000    0.0000 F   0  0  0  0  0  0  0  0  0  0  0  0
    0.0000    0.0000    0.0000 C   0  0  0  0  0  0  0  0  0  0  0  0
    0.0000    0.0000    0.0000 F   0  0  0  0  0  0  0  0  0  0  0  0
    0.0000    0.0000    0.0000 F   0  0  0  0  0  0  0  0  0  0  0  0
    0.0000    0.0000    0.0000 C   0  0  0  0  0  0  0  0  0  0  0  0
    0.0000    0.0000    0.0000 C   0  0  0  0  0  0  0  0  0  0  0  0
    0.0000    0.0000    0.0000 C   0  0  0  0  0  0  0  0  0  0  0  0
    0.0000    0.0000    0.0000 C   0  0  0  0  0  0  0  0  0  0  0  0
    0.0000    0.0000    0.0000 C   0  0  0  0  0  0  0  0  0  0  0  0
    0.0000    0.0000    0.0000 C   0  0  0  0  0  0  0  0  0  0  0  0
    0.0000    0.0000    0.0000 C   0  0  0  0  0  0  0  0  0  0  0  0
    0.0000    0.0000    0.0000 C   0  0  0  0  0  0  0  0  0  0  0  0
    0.0000    0.0000    0.0000 C   0  0  0  0  0  0  0  0  0  0  0  0
    0.0000    0.0000    0.0000 C   0  0  0  0  0  0  0  0  0  0  0  0
    0.0000    0.0000    0.0000 N   0  0  0  0  0  0  0  0  0  0  0  0
    0.0000    0.0000    0.0000 C   0  0  0  0  0  0  0  0  0  0  0  0
    0.0000    0.0000    0.0000 C   0  0  0  0  0  0  0  0  0  0  0  0
    0.0000    0.0000    0.0000 N   0  0  0  0  0  0  0  0  0  0  0  0
    0.0000    0.0000    0.0000 C   0  0  0  0  0  0  0  0  0  0  0  0
    0.0000    0.0000    0.0000 C   0  0  0  0  0  0  0  0  0  0  0  0
    0.0000    0.0000    0.0000 C   0  0  0  0  0  0  0  0  0  0  0  0
    0.0000    0.0000    0.0000 C   0  0  0  0  0  0  0  0  0  0  0  0
    0.0000    0.0000    0.0000 C   0  0  0  0  0  0  0  0  0  0  0  0
    0.0000    0.0000    0.0000 C   0  0  0  0  0  0  0  0  0  0  0  0
    0.0000    0.0000    0.0000 C   0  0  0  0  0  0  0  0  0  0  0  0
    0.0000    0.0000    0.0000 C   0  0  0  0  0  0  0  0  0  0  0  0
    0.0000    0.0000    0.0000 C   0  0  0  0  0  0  0  0  0  0  0  0
    0.0000    0.0000    0.0000 C   0  0  0  0  0  0  0  0  0  0  0  0
    0.0000    0.0000    0.0000 C   0  0  0  0  0  0  0  0  0  0  0  0
    0.0000    0.0000    0.0000 O   0  0  0  0  0  0  0  0  0  0  0  0
  1  2  1  0
  2  3  1  0
  2  4  1  0
  2  5  1  0
  5  6  2  0
  6  7  1  0
  7  8  2  0
  8  9  1  0
  9 10  2  0
 10 11  1  0
 11 12  2  0
 12 13  1  0
 13 14  2  0
 14 15  1  0
 15 16  1  0
 16 17  1  0
 17 18  1  0
 18 19  1  0
 19 20  1  0
 20 21  1  0
 21 22  1  0
 16 23  1  0
 23 24  2  0
 24 25  1  0
 25 26  2  0
 26 27  1  0
 27 28  2  0
 15 29  1  0
 29 30  2  0
 10  5  1  0
 29 11  1  0
 22 18  1  0
 28 23  1  0
M  END
>  <pIC50>  (66) 
5.78

>  <ChEMBL_ID>  (66) 
CHEMBL59995

>  <document_journal>  (66) 
Bioorg. Med. Chem. Lett.

>  <bao_endpoint>  (66) 
BAO_0000190

>  <potential_duplicate>  (66) 
False

>  <uo_units>  (66) 
UO_0000065

>  <canonical_smiles>  (66) 
FC(F)(F)c1ccccc1C2=CC=CN(C(CN3CCCC3)c4ccccc4)C2=O

>  <parent_molecule_chembl_id>  (66) 
CHEMBL59995

>  <assay_type>  (66) 
B

>  <src_id>  (66) 
1

>  <ligand_efficiency>  (66) 
{u'le': u'0.26', u'bei': u'14', u'sei': u'24.52', u'lle': u'1.26'}

>  <standard_flag>  (66) 
True

>  <molecule_chembl_id>  (66) 
CHEMBL59995

>  <target_organism>  (66) 
Homo sapiens

>  <standard_units>  (66) 
nM

>  <record_id>  (66) 
105344

>  <document_chembl_id>  (66) 
CHEMBL1135372

>  <bao_format>  (66) 
BAO_0000357

>  <data_validity_description>  (66) 
None

>  <activity_id>  (66) 
153414

>  <standard_type>  (66) 
IC50

>  <target_chembl_id>  (66) 
CHEMBL233

>  <data_validity_comment>  (66) 
None

>  <published_value>  (66) 
1680

>  <document_year>  (66) 
2002

>  <target_pref_name>  (66) 
Mu opioid receptor

>  <assay_chembl_id>  (66) 
CHEMBL749747

>  <standard_relation>  (66) 
=

>  <assay_description>  (66) 
Binding affinity towards mu opioid receptor by the displacement of [125I]Enkephalin

>  <published_relation>  (66) 
=

>  <standard_value>  (66) 
1680

>  <qudt_units>  (66) 
http://www.openphacts.org/units/Nanomolar

>  <target_tax_id>  (66) 
9606

>  <bao_label>  (66) 
single protein format

>  <published_units>  (66) 
nM

>  <pchembl_value>  (66) 
5.78

>  <published_type>  (66) 
IC50

>  <activity_comment>  (66) 
None

$$$$

     RDKit          

 26 29  0  0  0  0  0  0  0  0999 V2000
    0.0000    0.0000    0.0000 C   0  0  0  0  0  0  0  0  0  0  0  0
    0.0000    0.0000    0.0000 N   0  0  0  0  0  0  0  0  0  0  0  0
    0.0000    0.0000    0.0000 C   0  0  0  0  0  0  0  0  0  0  0  0
    0.0000    0.0000    0.0000 C   0  0  0  0  0  0  0  0  0  0  0  0
    0.0000    0.0000    0.0000 C   0  0  0  0  0  0  0  0  0  0  0  0
    0.0000    0.0000    0.0000 C   0  0  0  0  0  0  0  0  0  0  0  0
    0.0000    0.0000    0.0000 C   0  0  0  0  0  0  0  0  0  0  0  0
    0.0000    0.0000    0.0000 C   0  0  0  0  0  0  0  0  0  0  0  0
    0.0000    0.0000    0.0000 C   0  0  0  0  0  0  0  0  0  0  0  0
    0.0000    0.0000    0.0000 O   0  0  0  0  0  0  0  0  0  0  0  0
    0.0000    0.0000    0.0000 C   0  0  0  0  0  0  0  0  0  0  0  0
    0.0000    0.0000    0.0000 C   0  0  0  0  0  0  0  0  0  0  0  0
    0.0000    0.0000    0.0000 N   0  0  0  0  0  0  0  0  0  0  0  0
    0.0000    0.0000    0.0000 C   0  0  0  0  0  0  0  0  0  0  0  0
    0.0000    0.0000    0.0000 C   0  0  0  0  0  0  0  0  0  0  0  0
    0.0000    0.0000    0.0000 C   0  0  0  0  0  0  0  0  0  0  0  0
    0.0000    0.0000    0.0000 C   0  0  0  0  0  0  0  0  0  0  0  0
    0.0000    0.0000    0.0000 C   0  0  0  0  0  0  0  0  0  0  0  0
    0.0000    0.0000    0.0000 O   0  0  0  0  0  0  0  0  0  0  0  0
    0.0000    0.0000    0.0000 C   0  0  0  0  0  0  0  0  0  0  0  0
    0.0000    0.0000    0.0000 C   0  0  0  0  0  0  0  0  0  0  0  0
    0.0000    0.0000    0.0000 C   0  0  0  0  0  0  0  0  0  0  0  0
    0.0000    0.0000    0.0000 C   0  0  0  0  0  0  0  0  0  0  0  0
    0.0000    0.0000    0.0000 C   0  0  0  0  0  0  0  0  0  0  0  0
    0.0000    0.0000    0.0000 C   0  0  0  0  0  0  0  0  0  0  0  0
    0.0000    0.0000    0.0000 C   0  0  0  0  0  0  0  0  0  0  0  0
  1  2  1  0
  2  3  1  0
  3  4  1  0
  4  5  1  0
  5  6  1  0
  6  7  1  0
  7  8  1  0
  8  9  1  0
  9 10  1  0
  6 11  1  0
 11 12  1  0
 12 13  1  0
 13 14  1  0
 14 15  1  0
 15 16  1  0
 16 17  1  0
  2 18  1  0
 18 19  2  0
 18 20  1  0
 20 21  1  0
 21 22  2  0
 22 23  1  0
 23 24  2  0
 24 25  1  0
 25 26  2  0
 12  3  1  0
 10  6  1  0
 17 13  1  0
 26 21  1  0
M  END
>  <pIC50>  (67) 
6.605

>  <ChEMBL_ID>  (67) 
CHEMBL440765

>  <document_journal>  (67) 
Bioorg. Med. Chem. Lett.

>  <bao_endpoint>  (67) 
BAO_0000190

>  <potential_duplicate>  (67) 
False

>  <uo_units>  (67) 
UO_0000065

>  <canonical_smiles>  (67) 
CN([C@H]1CC[C@@]2(CCCO2)C[C@@H]1N3CCCC3)C(=O)Cc4ccccc4

>  <parent_molecule_chembl_id>  (67) 
CHEMBL440765

>  <assay_type>  (67) 
B

>  <src_id>  (67) 
1

>  <ligand_efficiency>  (67) 
{u'le': u'0.35', u'bei': u'18.53', u'sei': u'20.15', u'lle': u'3.94'}

>  <standard_flag>  (67) 
True

>  <molecule_chembl_id>  (67) 
CHEMBL440765

>  <target_organism>  (67) 
Homo sapiens

>  <standard_units>  (67) 
nM

>  <record_id>  (67) 
105356

>  <document_chembl_id>  (67) 
CHEMBL1135372

>  <bao_format>  (67) 
BAO_0000357

>  <data_validity_description>  (67) 
None

>  <activity_id>  (67) 
153459

>  <standard_type>  (67) 
IC50

>  <target_chembl_id>  (67) 
CHEMBL233

>  <data_validity_comment>  (67) 
None

>  <published_value>  (67) 
248

>  <document_year>  (67) 
2002

>  <target_pref_name>  (67) 
Mu opioid receptor

>  <assay_chembl_id>  (67) 
CHEMBL749746

>  <standard_relation>  (67) 
=

>  <assay_description>  (67) 
Binding affinity towards Opioid receptor mu 1 by the displacement of [125I]Enkephalin; Not determined

>  <published_relation>  (67) 
=

>  <standard_value>  (67) 
248

>  <qudt_units>  (67) 
http://www.openphacts.org/units/Nanomolar

>  <target_tax_id>  (67) 
9606

>  <bao_label>  (67) 
single protein format

>  <published_units>  (67) 
nM

>  <pchembl_value>  (67) 
6.61

>  <published_type>  (67) 
IC50

>  <activity_comment>  (67) 
None

$$$$

     RDKit          

 23 26  0  0  0  0  0  0  0  0999 V2000
    0.0000    0.0000    0.0000 O   0  0  0  0  0  0  0  0  0  0  0  0
    0.0000    0.0000    0.0000 C   0  0  0  0  0  0  0  0  0  0  0  0
    0.0000    0.0000    0.0000 N   0  0  0  0  0  0  0  0  0  0  0  0
    0.0000    0.0000    0.0000 N   0  0  0  0  0  0  0  0  0  0  0  0
    0.0000    0.0000    0.0000 C   0  0  0  0  0  0  0  0  0  0  0  0
    0.0000    0.0000    0.0000 C   0  0  0  0  0  0  0  0  0  0  0  0
    0.0000    0.0000    0.0000 C   0  0  0  0  0  0  0  0  0  0  0  0
    0.0000    0.0000    0.0000 C   0  0  0  0  0  0  0  0  0  0  0  0
    0.0000    0.0000    0.0000 C   0  0  0  0  0  0  0  0  0  0  0  0
    0.0000    0.0000    0.0000 C   0  0  0  0  0  0  0  0  0  0  0  0
    0.0000    0.0000    0.0000 C   0  0  0  0  0  0  0  0  0  0  0  0
    0.0000    0.0000    0.0000 C   0  0  0  0  0  0  0  0  0  0  0  0
    0.0000    0.0000    0.0000 C   0  0  0  0  0  0  0  0  0  0  0  0
    0.0000    0.0000    0.0000 C   0  0  0  0  0  0  0  0  0  0  0  0
    0.0000    0.0000    0.0000 C   0  0  0  0  0  0  0  0  0  0  0  0
    0.0000    0.0000    0.0000 N   0  0  0  0  0  0  0  0  0  0  0  0
    0.0000    0.0000    0.0000 C   0  0  0  0  0  0  0  0  0  0  0  0
    0.0000    0.0000    0.0000 C   0  0  0  0  0  0  0  0  0  0  0  0
    0.0000    0.0000    0.0000 C   0  0  0  0  0  0  0  0  0  0  0  0
    0.0000    0.0000    0.0000 C   0  0  0  0  0  0  0  0  0  0  0  0
    0.0000    0.0000    0.0000 C   0  0  0  0  0  0  0  0  0  0  0  0
    0.0000    0.0000    0.0000 C   0  0  0  0  0  0  0  0  0  0  0  0
    0.0000    0.0000    0.0000 C   0  0  0  0  0  0  0  0  0  0  0  0
  1  2  2  0
  2  3  1  0
  4  2  1  0
  5  4  1  0
  4  6  1  0
  7  5  1  0
  5  8  2  0
  6  9  1  0
 10  6  1  0
 11  7  2  0
  3  8  1  0
  8 12  1  0
  9 13  1  0
 14 10  1  0
 15 11  1  0
 12 15  2  0
 13 16  1  0
 16 14  1  0
 16 17  1  0
 17 18  1  0
 18 19  2  0
 20 18  1  0
 19 21  1  0
 22 20  2  0
 21 23  2  0
 23 22  1  0
M  END
>  <pIC50>  (68) 
5.77

>  <ChEMBL_ID>  (68) 
CHEMBL300616

>  <document_journal>  (68) 
J. Med. Chem.

>  <bao_endpoint>  (68) 
BAO_0000190

>  <potential_duplicate>  (68) 
False

>  <uo_units>  (68) 
UO_0000065

>  <canonical_smiles>  (68) 
Oc1nc2ccccc2n1C3CCN(Cc4ccccc4)CC3

>  <parent_molecule_chembl_id>  (68) 
CHEMBL300616

>  <assay_type>  (68) 
B

>  <src_id>  (68) 
1

>  <ligand_efficiency>  (68) 
{u'le': u'0.34', u'bei': u'18.77', u'sei': u'13.97', u'lle': u'2.22'}

>  <standard_flag>  (68) 
True

>  <molecule_chembl_id>  (68) 
CHEMBL300616

>  <target_organism>  (68) 
Homo sapiens

>  <standard_units>  (68) 
nM

>  <record_id>  (68) 
287597

>  <document_chembl_id>  (68) 
CHEMBL1132115

>  <bao_format>  (68) 
BAO_0000219

>  <data_validity_description>  (68) 
None

>  <activity_id>  (68) 
154974

>  <standard_type>  (68) 
IC50

>  <target_chembl_id>  (68) 
CHEMBL233

>  <data_validity_comment>  (68) 
None

>  <published_value>  (68) 
1700

>  <document_year>  (68) 
1999

>  <target_pref_name>  (68) 
Mu opioid receptor

>  <assay_chembl_id>  (68) 
CHEMBL749745

>  <standard_relation>  (68) 
=

>  <assay_description>  (68) 
Binding affinity in CHO cells stably expressing cloned human Opioid receptor mu 1 by displacing diprenorphine

>  <published_relation>  (68) 
=

>  <standard_value>  (68) 
1700

>  <qudt_units>  (68) 
http://www.openphacts.org/units/Nanomolar

>  <target_tax_id>  (68) 
9606

>  <bao_label>  (68) 
cell-based format

>  <published_units>  (68) 
nM

>  <pchembl_value>  (68) 
5.77

>  <published_type>  (68) 
IC50

>  <activity_comment>  (68) 
None

$$$$

     RDKit          

 31 34  0  0  0  0  0  0  0  0999 V2000
    0.0000    0.0000    0.0000 F   0  0  0  0  0  0  0  0  0  0  0  0
    0.0000    0.0000    0.0000 C   0  0  0  0  0  0  0  0  0  0  0  0
    0.0000    0.0000    0.0000 F   0  0  0  0  0  0  0  0  0  0  0  0
    0.0000    0.0000    0.0000 F   0  0  0  0  0  0  0  0  0  0  0  0
    0.0000    0.0000    0.0000 O   0  0  0  0  0  0  0  0  0  0  0  0
    0.0000    0.0000    0.0000 C   0  0  0  0  0  0  0  0  0  0  0  0
    0.0000    0.0000    0.0000 C   0  0  0  0  0  0  0  0  0  0  0  0
    0.0000    0.0000    0.0000 C   0  0  0  0  0  0  0  0  0  0  0  0
    0.0000    0.0000    0.0000 C   0  0  0  0  0  0  0  0  0  0  0  0
    0.0000    0.0000    0.0000 C   0  0  0  0  0  0  0  0  0  0  0  0
    0.0000    0.0000    0.0000 C   0  0  0  0  0  0  0  0  0  0  0  0
    0.0000    0.0000    0.0000 C   0  0  0  0  0  0  0  0  0  0  0  0
    0.0000    0.0000    0.0000 C   0  0  0  0  0  0  0  0  0  0  0  0
    0.0000    0.0000    0.0000 C   0  0  0  0  0  0  0  0  0  0  0  0
    0.0000    0.0000    0.0000 C   0  0  0  0  0  0  0  0  0  0  0  0
    0.0000    0.0000    0.0000 N   0  0  0  0  0  0  0  0  0  0  0  0
    0.0000    0.0000    0.0000 C   0  0  0  0  0  0  0  0  0  0  0  0
    0.0000    0.0000    0.0000 C   0  0  0  0  0  0  0  0  0  0  0  0
    0.0000    0.0000    0.0000 N   0  0  0  0  0  0  0  0  0  0  0  0
    0.0000    0.0000    0.0000 C   0  0  0  0  0  0  0  0  0  0  0  0
    0.0000    0.0000    0.0000 C   0  0  0  0  0  0  0  0  0  0  0  0
    0.0000    0.0000    0.0000 C   0  0  0  0  0  0  0  0  0  0  0  0
    0.0000    0.0000    0.0000 C   0  0  0  0  0  0  0  0  0  0  0  0
    0.0000    0.0000    0.0000 C   0  0  0  0  0  0  0  0  0  0  0  0
    0.0000    0.0000    0.0000 C   0  0  0  0  0  0  0  0  0  0  0  0
    0.0000    0.0000    0.0000 C   0  0  0  0  0  0  0  0  0  0  0  0
    0.0000    0.0000    0.0000 C   0  0  0  0  0  0  0  0  0  0  0  0
    0.0000    0.0000    0.0000 C   0  0  0  0  0  0  0  0  0  0  0  0
    0.0000    0.0000    0.0000 C   0  0  0  0  0  0  0  0  0  0  0  0
    0.0000    0.0000    0.0000 C   0  0  0  0  0  0  0  0  0  0  0  0
    0.0000    0.0000    0.0000 O   0  0  0  0  0  0  0  0  0  0  0  0
  1  2  1  0
  2  3  1  0
  2  4  1  0
  2  5  1  0
  5  6  1  0
  6  7  2  0
  7  8  1  0
  8  9  2  0
  9 10  1  0
 10 11  2  0
  9 12  1  0
 12 13  2  0
 13 14  1  0
 14 15  2  0
 15 16  1  0
 16 17  1  0
 17 18  1  0
 18 19  1  0
 19 20  1  0
 20 21  1  0
 21 22  1  0
 22 23  1  0
 17 24  1  0
 24 25  2  0
 25 26  1  0
 26 27  2  0
 27 28  1  0
 28 29  2  0
 16 30  1  0
 30 31  2  0
 11  6  1  0
 30 12  1  0
 23 19  1  0
 29 24  1  0
M  END
>  <pIC50>  (69) 
5.96

>  <ChEMBL_ID>  (69) 
CHEMBL61426

>  <document_journal>  (69) 
Bioorg. Med. Chem. Lett.

>  <bao_endpoint>  (69) 
BAO_0000190

>  <potential_duplicate>  (69) 
False

>  <uo_units>  (69) 
UO_0000065

>  <canonical_smiles>  (69) 
FC(F)(F)Oc1ccc(cc1)C2=CC=CN(C(CN3CCCC3)c4ccccc4)C2=O

>  <parent_molecule_chembl_id>  (69) 
CHEMBL61426

>  <assay_type>  (69) 
B

>  <src_id>  (69) 
1

>  <ligand_efficiency>  (69) 
{u'le': u'0.26', u'bei': u'13.91', u'sei': u'18.18', u'lle': u'0.27'}

>  <standard_flag>  (69) 
True

>  <molecule_chembl_id>  (69) 
CHEMBL61426

>  <target_organism>  (69) 
Homo sapiens

>  <standard_units>  (69) 
nM

>  <record_id>  (69) 
105346

>  <document_chembl_id>  (69) 
CHEMBL1135372

>  <bao_format>  (69) 
BAO_0000357

>  <data_validity_description>  (69) 
None

>  <activity_id>  (69) 
157118

>  <standard_type>  (69) 
IC50

>  <target_chembl_id>  (69) 
CHEMBL233

>  <data_validity_comment>  (69) 
None

>  <published_value>  (69) 
1100

>  <document_year>  (69) 
2002

>  <target_pref_name>  (69) 
Mu opioid receptor

>  <assay_chembl_id>  (69) 
CHEMBL749747

>  <standard_relation>  (69) 
=

>  <assay_description>  (69) 
Binding affinity towards mu opioid receptor by the displacement of [125I]Enkephalin

>  <published_relation>  (69) 
=

>  <standard_value>  (69) 
1100

>  <qudt_units>  (69) 
http://www.openphacts.org/units/Nanomolar

>  <target_tax_id>  (69) 
9606

>  <bao_label>  (69) 
single protein format

>  <published_units>  (69) 
nM

>  <pchembl_value>  (69) 
5.96

>  <published_type>  (69) 
IC50

>  <activity_comment>  (69) 
None

$$$$

     RDKit          

 27 30  0  0  0  0  0  0  0  0999 V2000
    0.0000    0.0000    0.0000 C   0  0  0  0  0  0  0  0  0  0  0  0
    0.0000    0.0000    0.0000 C   0  0  0  0  0  0  0  0  0  0  0  0
    0.0000    0.0000    0.0000 N   0  0  0  0  0  0  0  0  0  0  0  0
    0.0000    0.0000    0.0000 C   0  0  0  0  0  0  0  0  0  0  0  0
    0.0000    0.0000    0.0000 O   0  0  0  0  0  0  0  0  0  0  0  0
    0.0000    0.0000    0.0000 N   0  0  0  0  0  0  0  0  0  0  0  0
    0.0000    0.0000    0.0000 C   0  0  0  0  0  0  0  0  0  0  0  0
    0.0000    0.0000    0.0000 C   0  0  0  0  0  0  0  0  0  0  0  0
    0.0000    0.0000    0.0000 C   0  0  0  0  0  0  0  0  0  0  0  0
    0.0000    0.0000    0.0000 N   0  0  0  0  0  0  0  0  0  0  0  0
    0.0000    0.0000    0.0000 C   0  0  0  0  0  0  0  0  0  0  0  0
    0.0000    0.0000    0.0000 C   0  0  0  0  0  0  0  0  0  0  0  0
    0.0000    0.0000    0.0000 C   0  0  0  0  0  0  0  0  0  0  0  0
    0.0000    0.0000    0.0000 C   0  0  0  0  0  0  0  0  0  0  0  0
    0.0000    0.0000    0.0000 C   0  0  0  0  0  0  0  0  0  0  0  0
    0.0000    0.0000    0.0000 C   0  0  0  0  0  0  0  0  0  0  0  0
    0.0000    0.0000    0.0000 C   0  0  0  0  0  0  0  0  0  0  0  0
    0.0000    0.0000    0.0000 C   0  0  0  0  0  0  0  0  0  0  0  0
    0.0000    0.0000    0.0000 C   0  0  0  0  0  0  0  0  0  0  0  0
    0.0000    0.0000    0.0000 C   0  0  0  0  0  0  0  0  0  0  0  0
    0.0000    0.0000    0.0000 C   0  0  0  0  0  0  0  0  0  0  0  0
    0.0000    0.0000    0.0000 C   0  0  0  0  0  0  0  0  0  0  0  0
    0.0000    0.0000    0.0000 C   0  0  0  0  0  0  0  0  0  0  0  0
    0.0000    0.0000    0.0000 C   0  0  0  0  0  0  0  0  0  0  0  0
    0.0000    0.0000    0.0000 C   0  0  0  0  0  0  0  0  0  0  0  0
    0.0000    0.0000    0.0000 C   0  0  0  0  0  0  0  0  0  0  0  0
    0.0000    0.0000    0.0000 C   0  0  0  0  0  0  0  0  0  0  0  0
  1  2  1  0
  2  3  1  0
  3  4  1  0
  4  5  2  0
  4  6  1  0
  6  7  1  0
  7  8  1  0
  8  9  1  0
  9 10  1  0
 10 11  1  0
 11 12  1  0
 12 13  1  0
 13 14  1  0
 14 15  1  0
 15 16  1  0
 16 17  1  0
 17 18  1  0
 18 19  1  0
 10 20  1  0
 20 21  1  0
  6 22  1  0
 22 23  2  0
 23 24  1  0
 24 25  2  0
 25 26  1  0
 26 27  2  0
 27  3  1  0
 21  7  1  0
 19 12  1  0
 27 22  1  0
M  END
>  <pIC50>  (70) 
6.02

>  <ChEMBL_ID>  (70) 
CHEMBL146013

>  <document_journal>  (70) 
J. Med. Chem.

>  <bao_endpoint>  (70) 
BAO_0000190

>  <potential_duplicate>  (70) 
False

>  <uo_units>  (70) 
UO_0000065

>  <canonical_smiles>  (70) 
CCN1C(=O)N(C2CCN(CC3CCCCCCC3)CC2)c4ccccc14

>  <parent_molecule_chembl_id>  (70) 
CHEMBL146013

>  <assay_type>  (70) 
B

>  <src_id>  (70) 
1

>  <ligand_efficiency>  (70) 
{u'le': u'0.3', u'bei': u'16.3', u'sei': u'22.48', u'lle': u'1.35'}

>  <standard_flag>  (70) 
True

>  <molecule_chembl_id>  (70) 
CHEMBL146013

>  <target_organism>  (70) 
Homo sapiens

>  <standard_units>  (70) 
nM

>  <record_id>  (70) 
287601

>  <document_chembl_id>  (70) 
CHEMBL1132115

>  <bao_format>  (70) 
BAO_0000219

>  <data_validity_description>  (70) 
None

>  <activity_id>  (70) 
158741

>  <standard_type>  (70) 
IC50

>  <target_chembl_id>  (70) 
CHEMBL233

>  <data_validity_comment>  (70) 
None

>  <published_value>  (70) 
950

>  <document_year>  (70) 
1999

>  <target_pref_name>  (70) 
Mu opioid receptor

>  <assay_chembl_id>  (70) 
CHEMBL753179

>  <standard_relation>  (70) 
=

>  <assay_description>  (70) 
Inhibition of [3H]diprenorphine binding to human Opioid receptor mu 1 in CHO cells

>  <published_relation>  (70) 
=

>  <standard_value>  (70) 
950

>  <qudt_units>  (70) 
http://www.openphacts.org/units/Nanomolar

>  <target_tax_id>  (70) 
9606

>  <bao_label>  (70) 
cell-based format

>  <published_units>  (70) 
nM

>  <pchembl_value>  (70) 
6.02

>  <published_type>  (70) 
IC50

>  <activity_comment>  (70) 
None

$$$$

     RDKit          

 28 31  0  0  0  0  0  0  0  0999 V2000
    0.0000    0.0000    0.0000 Cl  0  0  0  0  0  0  0  0  0  0  0  0
    0.0000    0.0000    0.0000 C   0  0  0  0  0  0  0  0  0  0  0  0
    0.0000    0.0000    0.0000 C   0  0  0  0  0  0  0  0  0  0  0  0
    0.0000    0.0000    0.0000 C   0  0  0  0  0  0  0  0  0  0  0  0
    0.0000    0.0000    0.0000 C   0  0  0  0  0  0  0  0  0  0  0  0
    0.0000    0.0000    0.0000 C   0  0  0  0  0  0  0  0  0  0  0  0
    0.0000    0.0000    0.0000 C   0  0  0  0  0  0  0  0  0  0  0  0
    0.0000    0.0000    0.0000 Cl  0  0  0  0  0  0  0  0  0  0  0  0
    0.0000    0.0000    0.0000 C   0  0  0  0  0  0  0  0  0  0  0  0
    0.0000    0.0000    0.0000 C   0  0  0  0  0  0  0  0  0  0  0  0
    0.0000    0.0000    0.0000 C   0  0  0  0  0  0  0  0  0  0  0  0
    0.0000    0.0000    0.0000 C   0  0  0  0  0  0  0  0  0  0  0  0
    0.0000    0.0000    0.0000 N   0  0  0  0  0  0  0  0  0  0  0  0
    0.0000    0.0000    0.0000 C   0  0  0  0  0  0  0  0  0  0  0  0
    0.0000    0.0000    0.0000 C   0  0  0  0  0  0  0  0  0  0  0  0
    0.0000    0.0000    0.0000 N   0  0  0  0  0  0  0  0  0  0  0  0
    0.0000    0.0000    0.0000 C   0  0  0  0  0  0  0  0  0  0  0  0
    0.0000    0.0000    0.0000 C   0  0  0  0  0  0  0  0  0  0  0  0
    0.0000    0.0000    0.0000 C   0  0  0  0  0  0  0  0  0  0  0  0
    0.0000    0.0000    0.0000 C   0  0  0  0  0  0  0  0  0  0  0  0
    0.0000    0.0000    0.0000 C   0  0  0  0  0  0  0  0  0  0  0  0
    0.0000    0.0000    0.0000 C   0  0  0  0  0  0  0  0  0  0  0  0
    0.0000    0.0000    0.0000 C   0  0  0  0  0  0  0  0  0  0  0  0
    0.0000    0.0000    0.0000 C   0  0  0  0  0  0  0  0  0  0  0  0
    0.0000    0.0000    0.0000 C   0  0  0  0  0  0  0  0  0  0  0  0
    0.0000    0.0000    0.0000 C   0  0  0  0  0  0  0  0  0  0  0  0
    0.0000    0.0000    0.0000 C   0  0  0  0  0  0  0  0  0  0  0  0
    0.0000    0.0000    0.0000 O   0  0  0  0  0  0  0  0  0  0  0  0
  1  2  1  0
  2  3  2  0
  3  4  1  0
  4  5  2  0
  5  6  1  0
  6  7  2  0
  7  8  1  0
  5  9  1  0
  9 10  2  0
 10 11  1  0
 11 12  2  0
 12 13  1  0
 13 14  1  0
 14 15  1  0
 15 16  1  0
 16 17  1  0
 17 18  1  0
 18 19  1  0
 19 20  1  0
 14 21  1  0
 21 22  2  0
 22 23  1  0
 23 24  2  0
 24 25  1  0
 25 26  2  0
 13 27  1  0
 27 28  2  0
  7  2  1  0
 27  9  1  0
 20 16  1  0
 26 21  1  0
M  END
>  <pIC50>  (71) 
5.69

>  <ChEMBL_ID>  (71) 
CHEMBL61212

>  <document_journal>  (71) 
Bioorg. Med. Chem. Lett.

>  <bao_endpoint>  (71) 
BAO_0000190

>  <potential_duplicate>  (71) 
False

>  <uo_units>  (71) 
UO_0000065

>  <canonical_smiles>  (71) 
Clc1ccc(cc1Cl)C2=CC=CN(C(CN3CCCC3)c4ccccc4)C2=O

>  <parent_molecule_chembl_id>  (71) 
CHEMBL61212

>  <assay_type>  (71) 
B

>  <src_id>  (71) 
1

>  <ligand_efficiency>  (71) 
{u'le': u'0.28', u'bei': u'13.75', u'sei': u'24.14', u'lle': u'0.79'}

>  <standard_flag>  (71) 
True

>  <molecule_chembl_id>  (71) 
CHEMBL61212

>  <target_organism>  (71) 
Homo sapiens

>  <standard_units>  (71) 
nM

>  <record_id>  (71) 
105339

>  <document_chembl_id>  (71) 
CHEMBL1135372

>  <bao_format>  (71) 
BAO_0000357

>  <data_validity_description>  (71) 
None

>  <activity_id>  (71) 
159543

>  <standard_type>  (71) 
IC50

>  <target_chembl_id>  (71) 
CHEMBL233

>  <data_validity_comment>  (71) 
None

>  <published_value>  (71) 
2064

>  <document_year>  (71) 
2002

>  <target_pref_name>  (71) 
Mu opioid receptor

>  <assay_chembl_id>  (71) 
CHEMBL749747

>  <standard_relation>  (71) 
=

>  <assay_description>  (71) 
Binding affinity towards mu opioid receptor by the displacement of [125I]Enkephalin

>  <published_relation>  (71) 
=

>  <standard_value>  (71) 
2064

>  <qudt_units>  (71) 
http://www.openphacts.org/units/Nanomolar

>  <target_tax_id>  (71) 
9606

>  <bao_label>  (71) 
single protein format

>  <published_units>  (71) 
nM

>  <pchembl_value>  (71) 
5.69

>  <published_type>  (71) 
IC50

>  <activity_comment>  (71) 
None

$$$$

     RDKit          

 27 30  0  0  0  0  0  0  0  0999 V2000
    0.0000    0.0000    0.0000 Cl  0  0  0  0  0  0  0  0  0  0  0  0
    0.0000    0.0000    0.0000 C   0  0  0  0  0  0  0  0  0  0  0  0
    0.0000    0.0000    0.0000 C   0  0  0  0  0  0  0  0  0  0  0  0
    0.0000    0.0000    0.0000 C   0  0  0  0  0  0  0  0  0  0  0  0
    0.0000    0.0000    0.0000 C   0  0  0  0  0  0  0  0  0  0  0  0
    0.0000    0.0000    0.0000 C   0  0  0  0  0  0  0  0  0  0  0  0
    0.0000    0.0000    0.0000 C   0  0  0  0  0  0  0  0  0  0  0  0
    0.0000    0.0000    0.0000 C   0  0  0  0  0  0  0  0  0  0  0  0
    0.0000    0.0000    0.0000 C   0  0  0  0  0  0  0  0  0  0  0  0
    0.0000    0.0000    0.0000 C   0  0  0  0  0  0  0  0  0  0  0  0
    0.0000    0.0000    0.0000 C   0  0  0  0  0  0  0  0  0  0  0  0
    0.0000    0.0000    0.0000 N   0  0  0  0  0  0  0  0  0  0  0  0
    0.0000    0.0000    0.0000 C   0  0  0  0  0  0  0  0  0  0  0  0
    0.0000    0.0000    0.0000 C   0  0  0  0  0  0  0  0  0  0  0  0
    0.0000    0.0000    0.0000 N   0  0  0  0  0  0  0  0  0  0  0  0
    0.0000    0.0000    0.0000 C   0  0  0  0  0  0  0  0  0  0  0  0
    0.0000    0.0000    0.0000 C   0  0  0  0  0  0  0  0  0  0  0  0
    0.0000    0.0000    0.0000 C   0  0  0  0  0  0  0  0  0  0  0  0
    0.0000    0.0000    0.0000 C   0  0  0  0  0  0  0  0  0  0  0  0
    0.0000    0.0000    0.0000 C   0  0  0  0  0  0  0  0  0  0  0  0
    0.0000    0.0000    0.0000 C   0  0  0  0  0  0  0  0  0  0  0  0
    0.0000    0.0000    0.0000 C   0  0  0  0  0  0  0  0  0  0  0  0
    0.0000    0.0000    0.0000 C   0  0  0  0  0  0  0  0  0  0  0  0
    0.0000    0.0000    0.0000 C   0  0  0  0  0  0  0  0  0  0  0  0
    0.0000    0.0000    0.0000 C   0  0  0  0  0  0  0  0  0  0  0  0
    0.0000    0.0000    0.0000 C   0  0  0  0  0  0  0  0  0  0  0  0
    0.0000    0.0000    0.0000 O   0  0  0  0  0  0  0  0  0  0  0  0
  1  2  1  0
  2  3  2  0
  3  4  1  0
  4  5  2  0
  5  6  1  0
  6  7  2  0
  6  8  1  0
  8  9  2  0
  9 10  1  0
 10 11  2  0
 11 12  1  0
 12 13  1  0
 13 14  1  0
 14 15  1  0
 15 16  1  0
 16 17  1  0
 17 18  1  0
 18 19  1  0
 13 20  1  0
 20 21  2  0
 21 22  1  0
 22 23  2  0
 23 24  1  0
 24 25  2  0
 12 26  1  0
 26 27  2  0
  7  2  1  0
 26  8  1  0
 19 15  1  0
 25 20  1  0
M  END
>  <pIC50>  (72) 
6.51

>  <ChEMBL_ID>  (72) 
CHEMBL294174

>  <document_journal>  (72) 
Bioorg. Med. Chem. Lett.

>  <bao_endpoint>  (72) 
BAO_0000190

>  <potential_duplicate>  (72) 
False

>  <uo_units>  (72) 
UO_0000065

>  <canonical_smiles>  (72) 
Clc1cccc(c1)C2=CC=CN(C(CN3CCCC3)c4ccccc4)C2=O

>  <parent_molecule_chembl_id>  (72) 
CHEMBL294174

>  <assay_type>  (72) 
B

>  <src_id>  (72) 
1

>  <ligand_efficiency>  (72) 
{u'le': u'0.33', u'bei': u'17.19', u'sei': u'27.65', u'lle': u'2.27'}

>  <standard_flag>  (72) 
True

>  <molecule_chembl_id>  (72) 
CHEMBL294174

>  <target_organism>  (72) 
Homo sapiens

>  <standard_units>  (72) 
nM

>  <record_id>  (72) 
105342

>  <document_chembl_id>  (72) 
CHEMBL1135372

>  <bao_format>  (72) 
BAO_0000357

>  <data_validity_description>  (72) 
None

>  <activity_id>  (72) 
165583

>  <standard_type>  (72) 
IC50

>  <target_chembl_id>  (72) 
CHEMBL233

>  <data_validity_comment>  (72) 
None

>  <published_value>  (72) 
308

>  <document_year>  (72) 
2002

>  <target_pref_name>  (72) 
Mu opioid receptor

>  <assay_chembl_id>  (72) 
CHEMBL749747

>  <standard_relation>  (72) 
=

>  <assay_description>  (72) 
Binding affinity towards mu opioid receptor by the displacement of [125I]Enkephalin

>  <published_relation>  (72) 
=

>  <standard_value>  (72) 
308

>  <qudt_units>  (72) 
http://www.openphacts.org/units/Nanomolar

>  <target_tax_id>  (72) 
9606

>  <bao_label>  (72) 
single protein format

>  <published_units>  (72) 
nM

>  <pchembl_value>  (72) 
6.51

>  <published_type>  (72) 
IC50

>  <activity_comment>  (72) 
None

$$$$

     RDKit          

 30 33  0  0  0  0  0  0  0  0999 V2000
    0.0000    0.0000    0.0000 F   0  0  0  0  0  0  0  0  0  0  0  0
    0.0000    0.0000    0.0000 C   0  0  0  0  0  0  0  0  0  0  0  0
    0.0000    0.0000    0.0000 F   0  0  0  0  0  0  0  0  0  0  0  0
    0.0000    0.0000    0.0000 F   0  0  0  0  0  0  0  0  0  0  0  0
    0.0000    0.0000    0.0000 C   0  0  0  0  0  0  0  0  0  0  0  0
    0.0000    0.0000    0.0000 C   0  0  0  0  0  0  0  0  0  0  0  0
    0.0000    0.0000    0.0000 C   0  0  0  0  0  0  0  0  0  0  0  0
    0.0000    0.0000    0.0000 C   0  0  0  0  0  0  0  0  0  0  0  0
    0.0000    0.0000    0.0000 C   0  0  0  0  0  0  0  0  0  0  0  0
    0.0000    0.0000    0.0000 C   0  0  0  0  0  0  0  0  0  0  0  0
    0.0000    0.0000    0.0000 C   0  0  0  0  0  0  0  0  0  0  0  0
    0.0000    0.0000    0.0000 C   0  0  0  0  0  0  0  0  0  0  0  0
    0.0000    0.0000    0.0000 C   0  0  0  0  0  0  0  0  0  0  0  0
    0.0000    0.0000    0.0000 C   0  0  0  0  0  0  0  0  0  0  0  0
    0.0000    0.0000    0.0000 N   0  0  0  0  0  0  0  0  0  0  0  0
    0.0000    0.0000    0.0000 C   0  0  0  0  0  0  0  0  0  0  0  0
    0.0000    0.0000    0.0000 C   0  0  0  0  0  0  0  0  0  0  0  0
    0.0000    0.0000    0.0000 N   0  0  0  0  0  0  0  0  0  0  0  0
    0.0000    0.0000    0.0000 C   0  0  0  0  0  0  0  0  0  0  0  0
    0.0000    0.0000    0.0000 C   0  0  0  0  0  0  0  0  0  0  0  0
    0.0000    0.0000    0.0000 C   0  0  0  0  0  0  0  0  0  0  0  0
    0.0000    0.0000    0.0000 C   0  0  0  0  0  0  0  0  0  0  0  0
    0.0000    0.0000    0.0000 C   0  0  0  0  0  0  0  0  0  0  0  0
    0.0000    0.0000    0.0000 C   0  0  0  0  0  0  0  0  0  0  0  0
    0.0000    0.0000    0.0000 C   0  0  0  0  0  0  0  0  0  0  0  0
    0.0000    0.0000    0.0000 C   0  0  0  0  0  0  0  0  0  0  0  0
    0.0000    0.0000    0.0000 C   0  0  0  0  0  0  0  0  0  0  0  0
    0.0000    0.0000    0.0000 C   0  0  0  0  0  0  0  0  0  0  0  0
    0.0000    0.0000    0.0000 C   0  0  0  0  0  0  0  0  0  0  0  0
    0.0000    0.0000    0.0000 O   0  0  0  0  0  0  0  0  0  0  0  0
  1  2  1  0
  2  3  1  0
  2  4  1  0
  2  5  1  0
  5  6  2  0
  6  7  1  0
  7  8  2  0
  8  9  1  0
  9 10  2  0
  8 11  1  0
 11 12  2  0
 12 13  1  0
 13 14  2  0
 14 15  1  0
 15 16  1  0
 16 17  1  0
 17 18  1  0
 18 19  1  0
 19 20  1  0
 20 21  1  0
 21 22  1  0
 16 23  1  0
 23 24  2  0
 24 25  1  0
 25 26  2  0
 26 27  1  0
 27 28  2  0
 15 29  1  0
 29 30  2  0
 10  5  1  0
 29 11  1  0
 22 18  1  0
 28 23  1  0
M  END
>  <pIC50>  (73) 
5.57

>  <ChEMBL_ID>  (73) 
CHEMBL280037

>  <document_journal>  (73) 
Bioorg. Med. Chem. Lett.

>  <bao_endpoint>  (73) 
BAO_0000190

>  <potential_duplicate>  (73) 
False

>  <uo_units>  (73) 
UO_0000065

>  <canonical_smiles>  (73) 
FC(F)(F)c1ccc(cc1)C2=CC=CN(C(CN3CCCC3)c4ccccc4)C2=O

>  <parent_molecule_chembl_id>  (73) 
CHEMBL280037

>  <assay_type>  (73) 
B

>  <src_id>  (73) 
1

>  <ligand_efficiency>  (73) 
{u'le': u'0.25', u'bei': u'13.5', u'sei': u'23.64', u'lle': u'1.06'}

>  <standard_flag>  (73) 
True

>  <molecule_chembl_id>  (73) 
CHEMBL280037

>  <target_organism>  (73) 
Homo sapiens

>  <standard_units>  (73) 
nM

>  <record_id>  (73) 
105335

>  <document_chembl_id>  (73) 
CHEMBL1135372

>  <bao_format>  (73) 
BAO_0000357

>  <data_validity_description>  (73) 
None

>  <activity_id>  (73) 
166916

>  <standard_type>  (73) 
IC50

>  <target_chembl_id>  (73) 
CHEMBL233

>  <data_validity_comment>  (73) 
None

>  <published_value>  (73) 
2716

>  <document_year>  (73) 
2002

>  <target_pref_name>  (73) 
Mu opioid receptor

>  <assay_chembl_id>  (73) 
CHEMBL749747

>  <standard_relation>  (73) 
=

>  <assay_description>  (73) 
Binding affinity towards mu opioid receptor by the displacement of [125I]Enkephalin

>  <published_relation>  (73) 
=

>  <standard_value>  (73) 
2716

>  <qudt_units>  (73) 
http://www.openphacts.org/units/Nanomolar

>  <target_tax_id>  (73) 
9606

>  <bao_label>  (73) 
single protein format

>  <published_units>  (73) 
nM

>  <pchembl_value>  (73) 
5.57

>  <published_type>  (73) 
IC50

>  <activity_comment>  (73) 
None

$$$$

     RDKit          

 29 32  0  0  0  0  0  0  0  0999 V2000
    0.0000    0.0000    0.0000 C   0  0  0  0  0  0  0  0  0  0  0  0
    0.0000    0.0000    0.0000 O   0  0  0  0  0  0  0  0  0  0  0  0
    0.0000    0.0000    0.0000 C   0  0  0  0  0  0  0  0  0  0  0  0
    0.0000    0.0000    0.0000 C   0  0  0  0  0  0  0  0  0  0  0  0
    0.0000    0.0000    0.0000 C   0  0  0  0  0  0  0  0  0  0  0  0
    0.0000    0.0000    0.0000 C   0  0  0  0  0  0  0  0  0  0  0  0
    0.0000    0.0000    0.0000 Cl  0  0  0  0  0  0  0  0  0  0  0  0
    0.0000    0.0000    0.0000 C   0  0  0  0  0  0  0  0  0  0  0  0
    0.0000    0.0000    0.0000 C   0  0  0  0  0  0  0  0  0  0  0  0
    0.0000    0.0000    0.0000 C   0  0  0  0  0  0  0  0  0  0  0  0
    0.0000    0.0000    0.0000 C   0  0  0  0  0  0  0  0  0  0  0  0
    0.0000    0.0000    0.0000 C   0  0  0  0  0  0  0  0  0  0  0  0
    0.0000    0.0000    0.0000 C   0  0  0  0  0  0  0  0  0  0  0  0
    0.0000    0.0000    0.0000 N   0  0  0  0  0  0  0  0  0  0  0  0
    0.0000    0.0000    0.0000 C   0  0  0  0  0  0  0  0  0  0  0  0
    0.0000    0.0000    0.0000 C   0  0  0  0  0  0  0  0  0  0  0  0
    0.0000    0.0000    0.0000 N   0  0  0  0  0  0  0  0  0  0  0  0
    0.0000    0.0000    0.0000 C   0  0  0  0  0  0  0  0  0  0  0  0
    0.0000    0.0000    0.0000 C   0  0  0  0  0  0  0  0  0  0  0  0
    0.0000    0.0000    0.0000 C   0  0  0  0  0  0  0  0  0  0  0  0
    0.0000    0.0000    0.0000 C   0  0  0  0  0  0  0  0  0  0  0  0
    0.0000    0.0000    0.0000 C   0  0  0  0  0  0  0  0  0  0  0  0
    0.0000    0.0000    0.0000 C   0  0  0  0  0  0  0  0  0  0  0  0
    0.0000    0.0000    0.0000 C   0  0  0  0  0  0  0  0  0  0  0  0
    0.0000    0.0000    0.0000 C   0  0  0  0  0  0  0  0  0  0  0  0
    0.0000    0.0000    0.0000 C   0  0  0  0  0  0  0  0  0  0  0  0
    0.0000    0.0000    0.0000 C   0  0  0  0  0  0  0  0  0  0  0  0
    0.0000    0.0000    0.0000 C   0  0  0  0  0  0  0  0  0  0  0  0
    0.0000    0.0000    0.0000 O   0  0  0  0  0  0  0  0  0  0  0  0
  1  2  1  0
  2  3  1  0
  3  4  2  0
  4  5  1  0
  5  6  2  0
  6  7  1  0
  6  8  1  0
  8  9  2  0
  9 10  1  0
 10 11  2  0
 11 12  1  0
 12 13  2  0
 13 14  1  0
 14 15  1  0
 15 16  1  0
 16 17  1  0
 17 18  1  0
 18 19  1  0
 19 20  1  0
 20 21  1  0
 15 22  1  0
 22 23  2  0
 23 24  1  0
 24 25  2  0
 25 26  1  0
 26 27  2  0
 14 28  1  0
 28 29  2  0
  9  3  1  0
 28 10  1  0
 21 17  1  0
 27 22  1  0
M  END
>  <pIC50>  (74) 
5.91

>  <ChEMBL_ID>  (74) 
CHEMBL293143

>  <document_journal>  (74) 
Bioorg. Med. Chem. Lett.

>  <bao_endpoint>  (74) 
BAO_0000190

>  <potential_duplicate>  (74) 
False

>  <uo_units>  (74) 
UO_0000065

>  <canonical_smiles>  (74) 
COc1ccc(Cl)cc1C2=CC=CN(C(CN3CCCC3)c4ccccc4)C2=O

>  <parent_molecule_chembl_id>  (74) 
CHEMBL293143

>  <assay_type>  (74) 
B

>  <src_id>  (74) 
1

>  <ligand_efficiency>  (74) 
{u'le': u'0.28', u'bei': u'14.44', u'sei': u'18.02', u'lle': u'1.69'}

>  <standard_flag>  (74) 
True

>  <molecule_chembl_id>  (74) 
CHEMBL293143

>  <target_organism>  (74) 
Homo sapiens

>  <standard_units>  (74) 
nM

>  <record_id>  (74) 
105354

>  <document_chembl_id>  (74) 
CHEMBL1135372

>  <bao_format>  (74) 
BAO_0000357

>  <data_validity_description>  (74) 
None

>  <activity_id>  (74) 
166920

>  <standard_type>  (74) 
IC50

>  <target_chembl_id>  (74) 
CHEMBL233

>  <data_validity_comment>  (74) 
None

>  <published_value>  (74) 
1240

>  <document_year>  (74) 
2002

>  <target_pref_name>  (74) 
Mu opioid receptor

>  <assay_chembl_id>  (74) 
CHEMBL749747

>  <standard_relation>  (74) 
=

>  <assay_description>  (74) 
Binding affinity towards mu opioid receptor by the displacement of [125I]Enkephalin

>  <published_relation>  (74) 
=

>  <standard_value>  (74) 
1240

>  <qudt_units>  (74) 
http://www.openphacts.org/units/Nanomolar

>  <target_tax_id>  (74) 
9606

>  <bao_label>  (74) 
single protein format

>  <published_units>  (74) 
nM

>  <pchembl_value>  (74) 
5.91

>  <published_type>  (74) 
IC50

>  <activity_comment>  (74) 
None

$$$$

     RDKit          

 27 30  0  0  0  0  0  0  0  0999 V2000
    0.0000    0.0000    0.0000 Cl  0  0  0  0  0  0  0  0  0  0  0  0
    0.0000    0.0000    0.0000 C   0  0  0  0  0  0  0  0  0  0  0  0
    0.0000    0.0000    0.0000 C   0  0  0  0  0  0  0  0  0  0  0  0
    0.0000    0.0000    0.0000 C   0  0  0  0  0  0  0  0  0  0  0  0
    0.0000    0.0000    0.0000 C   0  0  0  0  0  0  0  0  0  0  0  0
    0.0000    0.0000    0.0000 C   0  0  0  0  0  0  0  0  0  0  0  0
    0.0000    0.0000    0.0000 C   0  0  0  0  0  0  0  0  0  0  0  0
    0.0000    0.0000    0.0000 C   0  0  0  0  0  0  0  0  0  0  0  0
    0.0000    0.0000    0.0000 C   0  0  0  0  0  0  0  0  0  0  0  0
    0.0000    0.0000    0.0000 C   0  0  0  0  0  0  0  0  0  0  0  0
    0.0000    0.0000    0.0000 C   0  0  0  0  0  0  0  0  0  0  0  0
    0.0000    0.0000    0.0000 N   0  0  0  0  0  0  0  0  0  0  0  0
    0.0000    0.0000    0.0000 C   0  0  0  0  0  0  0  0  0  0  0  0
    0.0000    0.0000    0.0000 C   0  0  0  0  0  0  0  0  0  0  0  0
    0.0000    0.0000    0.0000 N   0  0  0  0  0  0  0  0  0  0  0  0
    0.0000    0.0000    0.0000 C   0  0  0  0  0  0  0  0  0  0  0  0
    0.0000    0.0000    0.0000 C   0  0  0  0  0  0  0  0  0  0  0  0
    0.0000    0.0000    0.0000 C   0  0  0  0  0  0  0  0  0  0  0  0
    0.0000    0.0000    0.0000 C   0  0  0  0  0  0  0  0  0  0  0  0
    0.0000    0.0000    0.0000 C   0  0  0  0  0  0  0  0  0  0  0  0
    0.0000    0.0000    0.0000 C   0  0  0  0  0  0  0  0  0  0  0  0
    0.0000    0.0000    0.0000 C   0  0  0  0  0  0  0  0  0  0  0  0
    0.0000    0.0000    0.0000 C   0  0  0  0  0  0  0  0  0  0  0  0
    0.0000    0.0000    0.0000 C   0  0  0  0  0  0  0  0  0  0  0  0
    0.0000    0.0000    0.0000 C   0  0  0  0  0  0  0  0  0  0  0  0
    0.0000    0.0000    0.0000 C   0  0  0  0  0  0  0  0  0  0  0  0
    0.0000    0.0000    0.0000 O   0  0  0  0  0  0  0  0  0  0  0  0
  1  2  1  0
  2  3  2  0
  3  4  1  0
  4  5  2  0
  5  6  1  0
  6  7  2  0
  5  8  1  0
  8  9  2  0
  9 10  1  0
 10 11  2  0
 11 12  1  0
 12 13  1  0
 13 14  1  0
 14 15  1  0
 15 16  1  0
 16 17  1  0
 17 18  1  0
 18 19  1  0
 13 20  1  0
 20 21  2  0
 21 22  1  0
 22 23  2  0
 23 24  1  0
 24 25  2  0
 12 26  1  0
 26 27  2  0
  7  2  1  0
 26  8  1  0
 19 15  1  0
 25 20  1  0
M  END
>  <pIC50>  (75) 
5.32

>  <ChEMBL_ID>  (75) 
CHEMBL60030

>  <document_journal>  (75) 
Bioorg. Med. Chem. Lett.

>  <bao_endpoint>  (75) 
BAO_0000190

>  <potential_duplicate>  (75) 
False

>  <uo_units>  (75) 
UO_0000065

>  <canonical_smiles>  (75) 
Clc1ccc(cc1)C2=CC=CN(C(CN3CCCC3)c4ccccc4)C2=O

>  <parent_molecule_chembl_id>  (75) 
CHEMBL60030

>  <assay_type>  (75) 
B

>  <src_id>  (75) 
1

>  <ligand_efficiency>  (75) 
{u'le': u'0.27', u'bei': u'14.03', u'sei': u'22.57', u'lle': u'1.08'}

>  <standard_flag>  (75) 
True

>  <molecule_chembl_id>  (75) 
CHEMBL60030

>  <target_organism>  (75) 
Homo sapiens

>  <standard_units>  (75) 
nM

>  <record_id>  (75) 
105336

>  <document_chembl_id>  (75) 
CHEMBL1135372

>  <bao_format>  (75) 
BAO_0000357

>  <data_validity_description>  (75) 
None

>  <activity_id>  (75) 
175287

>  <standard_type>  (75) 
IC50

>  <target_chembl_id>  (75) 
CHEMBL233

>  <data_validity_comment>  (75) 
None

>  <published_value>  (75) 
4840

>  <document_year>  (75) 
2002

>  <target_pref_name>  (75) 
Mu opioid receptor

>  <assay_chembl_id>  (75) 
CHEMBL749747

>  <standard_relation>  (75) 
=

>  <assay_description>  (75) 
Binding affinity towards mu opioid receptor by the displacement of [125I]Enkephalin

>  <published_relation>  (75) 
=

>  <standard_value>  (75) 
4840

>  <qudt_units>  (75) 
http://www.openphacts.org/units/Nanomolar

>  <target_tax_id>  (75) 
9606

>  <bao_label>  (75) 
single protein format

>  <published_units>  (75) 
nM

>  <pchembl_value>  (75) 
5.32

>  <published_type>  (75) 
IC50

>  <activity_comment>  (75) 
None

$$$$

     RDKit          

 29 32  0  0  0  0  0  0  0  0999 V2000
    0.0000    0.0000    0.0000 O   0  0  0  0  0  0  0  0  0  0  0  0
    0.0000    0.0000    0.0000 N   0  0  0  0  0  0  0  0  0  0  0  0
    0.0000    0.0000    0.0000 O   0  0  0  0  0  0  0  0  0  0  0  0
    0.0000    0.0000    0.0000 C   0  0  0  0  0  0  0  0  0  0  0  0
    0.0000    0.0000    0.0000 C   0  0  0  0  0  0  0  0  0  0  0  0
    0.0000    0.0000    0.0000 C   0  0  0  0  0  0  0  0  0  0  0  0
    0.0000    0.0000    0.0000 C   0  0  0  0  0  0  0  0  0  0  0  0
    0.0000    0.0000    0.0000 C   0  0  0  0  0  0  0  0  0  0  0  0
    0.0000    0.0000    0.0000 C   0  0  0  0  0  0  0  0  0  0  0  0
    0.0000    0.0000    0.0000 C   0  0  0  0  0  0  0  0  0  0  0  0
    0.0000    0.0000    0.0000 C   0  0  0  0  0  0  0  0  0  0  0  0
    0.0000    0.0000    0.0000 C   0  0  0  0  0  0  0  0  0  0  0  0
    0.0000    0.0000    0.0000 C   0  0  0  0  0  0  0  0  0  0  0  0
    0.0000    0.0000    0.0000 N   0  0  0  0  0  0  0  0  0  0  0  0
    0.0000    0.0000    0.0000 C   0  0  0  0  0  0  0  0  0  0  0  0
    0.0000    0.0000    0.0000 C   0  0  0  0  0  0  0  0  0  0  0  0
    0.0000    0.0000    0.0000 N   0  0  0  0  0  0  0  0  0  0  0  0
    0.0000    0.0000    0.0000 C   0  0  0  0  0  0  0  0  0  0  0  0
    0.0000    0.0000    0.0000 C   0  0  0  0  0  0  0  0  0  0  0  0
    0.0000    0.0000    0.0000 C   0  0  0  0  0  0  0  0  0  0  0  0
    0.0000    0.0000    0.0000 C   0  0  0  0  0  0  0  0  0  0  0  0
    0.0000    0.0000    0.0000 C   0  0  0  0  0  0  0  0  0  0  0  0
    0.0000    0.0000    0.0000 C   0  0  0  0  0  0  0  0  0  0  0  0
    0.0000    0.0000    0.0000 C   0  0  0  0  0  0  0  0  0  0  0  0
    0.0000    0.0000    0.0000 C   0  0  0  0  0  0  0  0  0  0  0  0
    0.0000    0.0000    0.0000 C   0  0  0  0  0  0  0  0  0  0  0  0
    0.0000    0.0000    0.0000 C   0  0  0  0  0  0  0  0  0  0  0  0
    0.0000    0.0000    0.0000 C   0  0  0  0  0  0  0  0  0  0  0  0
    0.0000    0.0000    0.0000 O   0  0  0  0  0  0  0  0  0  0  0  0
  1  2  1  0
  2  3  2  0
  2  4  1  0
  4  5  2  0
  5  6  1  0
  6  7  2  0
  7  8  1  0
  8  9  2  0
  8 10  1  0
 10 11  2  0
 11 12  1  0
 12 13  2  0
 13 14  1  0
 14 15  1  0
 15 16  1  0
 16 17  1  0
 17 18  1  0
 18 19  1  0
 19 20  1  0
 20 21  1  0
 15 22  1  0
 22 23  2  0
 23 24  1  0
 24 25  2  0
 25 26  1  0
 26 27  2  0
 14 28  1  0
 28 29  2  0
  9  4  1  0
 28 10  1  0
 21 17  1  0
 27 22  1  0
M  CHG  2   1  -1   2   1
M  END
>  <pIC50>  (76) 
5.41

>  <ChEMBL_ID>  (76) 
CHEMBL293619

>  <document_journal>  (76) 
Bioorg. Med. Chem. Lett.

>  <bao_endpoint>  (76) 
BAO_0000190

>  <potential_duplicate>  (76) 
False

>  <uo_units>  (76) 
UO_0000065

>  <canonical_smiles>  (76) 
[O-][N+](=O)c1cccc(c1)C2=CC=CN(C(CN3CCCC3)c4ccccc4)C2=O

>  <parent_molecule_chembl_id>  (76) 
CHEMBL293619

>  <assay_type>  (76) 
B

>  <src_id>  (76) 
1

>  <ligand_efficiency>  (76) 
{u'le': u'0.25', u'bei': u'13.89', u'sei': u'7.8', u'lle': u'1.94'}

>  <standard_flag>  (76) 
True

>  <molecule_chembl_id>  (76) 
CHEMBL293619

>  <target_organism>  (76) 
Homo sapiens

>  <standard_units>  (76) 
nM

>  <record_id>  (76) 
105343

>  <document_chembl_id>  (76) 
CHEMBL1135372

>  <bao_format>  (76) 
BAO_0000357

>  <data_validity_description>  (76) 
None

>  <activity_id>  (76) 
175290

>  <standard_type>  (76) 
IC50

>  <target_chembl_id>  (76) 
CHEMBL233

>  <data_validity_comment>  (76) 
None

>  <published_value>  (76) 
3910

>  <document_year>  (76) 
2002

>  <target_pref_name>  (76) 
Mu opioid receptor

>  <assay_chembl_id>  (76) 
CHEMBL749747

>  <standard_relation>  (76) 
=

>  <assay_description>  (76) 
Binding affinity towards mu opioid receptor by the displacement of [125I]Enkephalin

>  <published_relation>  (76) 
=

>  <standard_value>  (76) 
3910

>  <qudt_units>  (76) 
http://www.openphacts.org/units/Nanomolar

>  <target_tax_id>  (76) 
9606

>  <bao_label>  (76) 
single protein format

>  <published_units>  (76) 
nM

>  <pchembl_value>  (76) 
5.41

>  <published_type>  (76) 
IC50

>  <activity_comment>  (76) 
None

$$$$

     RDKit          

 29 32  0  0  0  0  0  0  0  0999 V2000
    0.0000    0.0000    0.0000 C   0  0  0  0  0  0  0  0  0  0  0  0
    0.0000    0.0000    0.0000 C   0  0  0  0  0  0  0  0  0  0  0  0
    0.0000    0.0000    0.0000 N   0  0  0  0  0  0  0  0  0  0  0  0
    0.0000    0.0000    0.0000 C   0  0  0  0  0  0  0  0  0  0  0  0
    0.0000    0.0000    0.0000 O   0  0  0  0  0  0  0  0  0  0  0  0
    0.0000    0.0000    0.0000 N   0  0  0  0  0  0  0  0  0  0  0  0
    0.0000    0.0000    0.0000 C   0  0  0  0  0  0  0  0  0  0  0  0
    0.0000    0.0000    0.0000 C   0  0  0  0  0  0  0  0  0  0  0  0
    0.0000    0.0000    0.0000 C   0  0  0  0  0  0  0  0  0  0  0  0
    0.0000    0.0000    0.0000 N   0  0  0  0  0  0  0  0  0  0  0  0
    0.0000    0.0000    0.0000 C   0  0  0  0  0  0  0  0  0  0  0  0
    0.0000    0.0000    0.0000 C   0  0  0  0  0  0  0  0  0  0  0  0
    0.0000    0.0000    0.0000 C   0  0  0  0  0  0  0  0  0  0  0  0
    0.0000    0.0000    0.0000 C   0  0  0  0  0  0  0  0  0  0  0  0
    0.0000    0.0000    0.0000 C   0  0  0  0  0  0  0  0  0  0  0  0
    0.0000    0.0000    0.0000 C   0  0  0  0  0  0  0  0  0  0  0  0
    0.0000    0.0000    0.0000 C   0  0  0  0  0  0  0  0  0  0  0  0
    0.0000    0.0000    0.0000 C   0  0  0  0  0  0  0  0  0  0  0  0
    0.0000    0.0000    0.0000 C   0  0  0  0  0  0  0  0  0  0  0  0
    0.0000    0.0000    0.0000 C   0  0  0  0  0  0  0  0  0  0  0  0
    0.0000    0.0000    0.0000 C   0  0  0  0  0  0  0  0  0  0  0  0
    0.0000    0.0000    0.0000 C   0  0  0  0  0  0  0  0  0  0  0  0
    0.0000    0.0000    0.0000 O   0  0  0  0  0  0  0  0  0  0  0  0
    0.0000    0.0000    0.0000 C   0  0  0  0  0  0  0  0  0  0  0  0
    0.0000    0.0000    0.0000 C   0  0  0  0  0  0  0  0  0  0  0  0
    0.0000    0.0000    0.0000 C   0  0  0  0  0  0  0  0  0  0  0  0
    0.0000    0.0000    0.0000 C   0  0  0  0  0  0  0  0  0  0  0  0
    0.0000    0.0000    0.0000 C   0  0  0  0  0  0  0  0  0  0  0  0
    0.0000    0.0000    0.0000 C   0  0  0  0  0  0  0  0  0  0  0  0
  1  2  1  0
  2  3  1  0
  3  4  1  0
  4  5  2  0
  4  6  1  0
  6  7  1  0
  7  8  1  0
  8  9  1  0
  9 10  1  0
 10 11  1  0
 11 12  1  0
 12 13  1  0
 13 14  1  0
 14 15  1  0
 15 16  1  0
 16 17  1  0
 17 18  1  0
 18 19  1  0
 10 20  1  0
 20 21  1  0
 21 22  1  0
 22 23  1  0
  6 24  1  0
 24 25  2  0
 25 26  1  0
 26 27  2  0
 27 28  1  0
 28 29  2  0
 29  3  1  0
 21  7  1  0
 19 12  1  0
 29 24  1  0
M  END
>  <pIC50>  (77) 
5.48

>  <ChEMBL_ID>  (77) 
CHEMBL146462

>  <document_journal>  (77) 
J. Med. Chem.

>  <bao_endpoint>  (77) 
BAO_0000190

>  <potential_duplicate>  (77) 
False

>  <uo_units>  (77) 
UO_0000065

>  <canonical_smiles>  (77) 
CCN1C(=O)N([C@H]2CCN(CC3CCCCCCC3)C[C@@H]2CO)c4ccccc14

>  <parent_molecule_chembl_id>  (77) 
CHEMBL146462

>  <assay_type>  (77) 
B

>  <src_id>  (77) 
1

>  <ligand_efficiency>  (77) 
{u'le': u'0.26', u'bei': u'13.72', u'sei': u'11.66', u'lle': u'1.36'}

>  <standard_flag>  (77) 
True

>  <molecule_chembl_id>  (77) 
CHEMBL146462

>  <target_organism>  (77) 
Homo sapiens

>  <standard_units>  (77) 
nM

>  <record_id>  (77) 
287600

>  <document_chembl_id>  (77) 
CHEMBL1132115

>  <bao_format>  (77) 
BAO_0000219

>  <data_validity_description>  (77) 
None

>  <activity_id>  (77) 
175699

>  <standard_type>  (77) 
IC50

>  <target_chembl_id>  (77) 
CHEMBL233

>  <data_validity_comment>  (77) 
None

>  <published_value>  (77) 
3300

>  <document_year>  (77) 
1999

>  <target_pref_name>  (77) 
Mu opioid receptor

>  <assay_chembl_id>  (77) 
CHEMBL749745

>  <standard_relation>  (77) 
=

>  <assay_description>  (77) 
Binding affinity in CHO cells stably expressing cloned human Opioid receptor mu 1 by displacing diprenorphine

>  <published_relation>  (77) 
=

>  <standard_value>  (77) 
3300

>  <qudt_units>  (77) 
http://www.openphacts.org/units/Nanomolar

>  <target_tax_id>  (77) 
9606

>  <bao_label>  (77) 
cell-based format

>  <published_units>  (77) 
nM

>  <pchembl_value>  (77) 
5.48

>  <published_type>  (77) 
IC50

>  <activity_comment>  (77) 
None

$$$$

     RDKit          

 28 31  0  0  0  0  0  0  0  0999 V2000
    0.0000    0.0000    0.0000 C   0  0  0  0  0  0  0  0  0  0  0  0
    0.0000    0.0000    0.0000 O   0  0  0  0  0  0  0  0  0  0  0  0
    0.0000    0.0000    0.0000 C   0  0  0  0  0  0  0  0  0  0  0  0
    0.0000    0.0000    0.0000 C   0  0  0  0  0  0  0  0  0  0  0  0
    0.0000    0.0000    0.0000 C   0  0  0  0  0  0  0  0  0  0  0  0
    0.0000    0.0000    0.0000 C   0  0  0  0  0  0  0  0  0  0  0  0
    0.0000    0.0000    0.0000 C   0  0  0  0  0  0  0  0  0  0  0  0
    0.0000    0.0000    0.0000 C   0  0  0  0  0  0  0  0  0  0  0  0
    0.0000    0.0000    0.0000 C   0  0  0  0  0  0  0  0  0  0  0  0
    0.0000    0.0000    0.0000 C   0  0  0  0  0  0  0  0  0  0  0  0
    0.0000    0.0000    0.0000 C   0  0  0  0  0  0  0  0  0  0  0  0
    0.0000    0.0000    0.0000 C   0  0  0  0  0  0  0  0  0  0  0  0
    0.0000    0.0000    0.0000 N   0  0  0  0  0  0  0  0  0  0  0  0
    0.0000    0.0000    0.0000 C   0  0  0  0  0  0  0  0  0  0  0  0
    0.0000    0.0000    0.0000 C   0  0  0  0  0  0  0  0  0  0  0  0
    0.0000    0.0000    0.0000 N   0  0  0  0  0  0  0  0  0  0  0  0
    0.0000    0.0000    0.0000 C   0  0  0  0  0  0  0  0  0  0  0  0
    0.0000    0.0000    0.0000 C   0  0  0  0  0  0  0  0  0  0  0  0
    0.0000    0.0000    0.0000 C   0  0  0  0  0  0  0  0  0  0  0  0
    0.0000    0.0000    0.0000 C   0  0  0  0  0  0  0  0  0  0  0  0
    0.0000    0.0000    0.0000 C   0  0  0  0  0  0  0  0  0  0  0  0
    0.0000    0.0000    0.0000 C   0  0  0  0  0  0  0  0  0  0  0  0
    0.0000    0.0000    0.0000 C   0  0  0  0  0  0  0  0  0  0  0  0
    0.0000    0.0000    0.0000 C   0  0  0  0  0  0  0  0  0  0  0  0
    0.0000    0.0000    0.0000 C   0  0  0  0  0  0  0  0  0  0  0  0
    0.0000    0.0000    0.0000 C   0  0  0  0  0  0  0  0  0  0  0  0
    0.0000    0.0000    0.0000 C   0  0  0  0  0  0  0  0  0  0  0  0
    0.0000    0.0000    0.0000 O   0  0  0  0  0  0  0  0  0  0  0  0
  1  2  1  0
  2  3  1  0
  3  4  2  0
  4  5  1  0
  5  6  2  0
  6  7  1  0
  7  8  2  0
  6  9  1  0
  9 10  2  0
 10 11  1  0
 11 12  2  0
 12 13  1  0
 13 14  1  0
 14 15  1  0
 15 16  1  0
 16 17  1  0
 17 18  1  0
 18 19  1  0
 19 20  1  0
 14 21  1  0
 21 22  2  0
 22 23  1  0
 23 24  2  0
 24 25  1  0
 25 26  2  0
 13 27  1  0
 27 28  2  0
  8  3  1  0
 27  9  1  0
 20 16  1  0
 26 21  1  0
M  END
>  <pIC50>  (78) 
5.83

>  <ChEMBL_ID>  (78) 
CHEMBL305552

>  <document_journal>  (78) 
Bioorg. Med. Chem. Lett.

>  <bao_endpoint>  (78) 
BAO_0000190

>  <potential_duplicate>  (78) 
False

>  <uo_units>  (78) 
UO_0000065

>  <canonical_smiles>  (78) 
COc1ccc(cc1)C2=CC=CN(C(CN3CCCC3)c4ccccc4)C2=O

>  <parent_molecule_chembl_id>  (78) 
CHEMBL305552

>  <assay_type>  (78) 
B

>  <src_id>  (78) 
1

>  <ligand_efficiency>  (78) 
{u'le': u'0.28', u'bei': u'15.58', u'sei': u'17.8', u'lle': u'2.27'}

>  <standard_flag>  (78) 
True

>  <molecule_chembl_id>  (78) 
CHEMBL305552

>  <target_organism>  (78) 
Homo sapiens

>  <standard_units>  (78) 
nM

>  <record_id>  (78) 
105355

>  <document_chembl_id>  (78) 
CHEMBL1135372

>  <bao_format>  (78) 
BAO_0000357

>  <data_validity_description>  (78) 
None

>  <activity_id>  (78) 
177848

>  <standard_type>  (78) 
IC50

>  <target_chembl_id>  (78) 
CHEMBL233

>  <data_validity_comment>  (78) 
None

>  <published_value>  (78) 
1464

>  <document_year>  (78) 
2002

>  <target_pref_name>  (78) 
Mu opioid receptor

>  <assay_chembl_id>  (78) 
CHEMBL749747

>  <standard_relation>  (78) 
=

>  <assay_description>  (78) 
Binding affinity towards mu opioid receptor by the displacement of [125I]Enkephalin

>  <published_relation>  (78) 
=

>  <standard_value>  (78) 
1464

>  <qudt_units>  (78) 
http://www.openphacts.org/units/Nanomolar

>  <target_tax_id>  (78) 
9606

>  <bao_label>  (78) 
single protein format

>  <published_units>  (78) 
nM

>  <pchembl_value>  (78) 
5.83

>  <published_type>  (78) 
IC50

>  <activity_comment>  (78) 
None

$$$$

     RDKit          

 25 28  0  0  0  0  0  0  0  0999 V2000
    0.0000    0.0000    0.0000 O   0  0  0  0  0  0  0  0  0  0  0  0
    0.0000    0.0000    0.0000 C   0  0  0  0  0  0  0  0  0  0  0  0
    0.0000    0.0000    0.0000 N   0  0  0  0  0  0  0  0  0  0  0  0
    0.0000    0.0000    0.0000 N   0  0  0  0  0  0  0  0  0  0  0  0
    0.0000    0.0000    0.0000 C   0  0  0  0  0  0  0  0  0  0  0  0
    0.0000    0.0000    0.0000 C   0  0  0  0  0  0  0  0  0  0  0  0
    0.0000    0.0000    0.0000 C   0  0  0  0  0  0  0  0  0  0  0  0
    0.0000    0.0000    0.0000 C   0  0  0  0  0  0  0  0  0  0  0  0
    0.0000    0.0000    0.0000 C   0  0  0  0  0  0  0  0  0  0  0  0
    0.0000    0.0000    0.0000 C   0  0  0  0  0  0  0  0  0  0  0  0
    0.0000    0.0000    0.0000 C   0  0  0  0  0  0  0  0  0  0  0  0
    0.0000    0.0000    0.0000 C   0  0  0  0  0  0  0  0  0  0  0  0
    0.0000    0.0000    0.0000 C   0  0  0  0  0  0  0  0  0  0  0  0
    0.0000    0.0000    0.0000 C   0  0  0  0  0  0  0  0  0  0  0  0
    0.0000    0.0000    0.0000 N   0  0  0  0  0  0  0  0  0  0  0  0
    0.0000    0.0000    0.0000 C   0  0  0  0  0  0  0  0  0  0  0  0
    0.0000    0.0000    0.0000 C   0  0  0  0  0  0  0  0  0  0  0  0
    0.0000    0.0000    0.0000 C   0  0  0  0  0  0  0  0  0  0  0  0
    0.0000    0.0000    0.0000 C   0  0  0  0  0  0  0  0  0  0  0  0
    0.0000    0.0000    0.0000 C   0  0  0  0  0  0  0  0  0  0  0  0
    0.0000    0.0000    0.0000 C   0  0  0  0  0  0  0  0  0  0  0  0
    0.0000    0.0000    0.0000 C   0  0  0  0  0  0  0  0  0  0  0  0
    0.0000    0.0000    0.0000 C   0  0  0  0  0  0  0  0  0  0  0  0
    0.0000    0.0000    0.0000 Cl  0  0  0  0  0  0  0  0  0  0  0  0
    0.0000    0.0000    0.0000 C   0  0  0  0  0  0  0  0  0  0  0  0
  1  2  2  0
  2  3  1  0
  4  2  1  0
  5  4  1  0
  6  4  1  0
  7  5  1  0
  5  8  1  0
  9  6  1  0
  6 10  2  0
 11  7  1  0
  8 12  1  0
 13  9  2  0
  3 10  1  0
 10 14  1  0
 15 11  1  0
 12 15  1  0
 16 13  1  0
 14 16  2  0
 17 15  1  0
 18 17  1  0
 17 19  1  0
 19 20  2  0
 21 19  1  0
 20 22  1  0
 23 21  2  0
 21 24  1  0
 22 25  2  0
 25 23  1  0
M  END
>  <pIC50>  (79) 
7.37

>  <ChEMBL_ID>  (79) 
CHEMBL146054

>  <document_journal>  (79) 
J. Med. Chem.

>  <bao_endpoint>  (79) 
BAO_0000190

>  <potential_duplicate>  (79) 
False

>  <uo_units>  (79) 
UO_0000065

>  <canonical_smiles>  (79) 
CC(N1CCC(CC1)n2c(O)nc3ccccc23)c4ccccc4Cl

>  <parent_molecule_chembl_id>  (79) 
CHEMBL146054

>  <assay_type>  (79) 
B

>  <src_id>  (79) 
1

>  <ligand_efficiency>  (79) 
{u'le': u'0.4', u'bei': u'20.7', u'sei': u'17.84', u'lle': u'2.78'}

>  <standard_flag>  (79) 
True

>  <molecule_chembl_id>  (79) 
CHEMBL146054

>  <target_organism>  (79) 
Homo sapiens

>  <standard_units>  (79) 
nM

>  <record_id>  (79) 
287598

>  <document_chembl_id>  (79) 
CHEMBL1132115

>  <bao_format>  (79) 
BAO_0000219

>  <data_validity_description>  (79) 
None

>  <activity_id>  (79) 
179539

>  <standard_type>  (79) 
IC50

>  <target_chembl_id>  (79) 
CHEMBL233

>  <data_validity_comment>  (79) 
None

>  <published_value>  (79) 
43

>  <document_year>  (79) 
1999

>  <target_pref_name>  (79) 
Mu opioid receptor

>  <assay_chembl_id>  (79) 
CHEMBL749745

>  <standard_relation>  (79) 
=

>  <assay_description>  (79) 
Binding affinity in CHO cells stably expressing cloned human Opioid receptor mu 1 by displacing diprenorphine

>  <published_relation>  (79) 
=

>  <standard_value>  (79) 
43

>  <qudt_units>  (79) 
http://www.openphacts.org/units/Nanomolar

>  <target_tax_id>  (79) 
9606

>  <bao_label>  (79) 
cell-based format

>  <published_units>  (79) 
nM

>  <pchembl_value>  (79) 
7.37

>  <published_type>  (79) 
IC50

>  <activity_comment>  (79) 
None

$$$$

     RDKit          

 29 32  0  0  0  0  0  0  0  0999 V2000
    0.0000    0.0000    0.0000 C   0  0  0  0  0  0  0  0  0  0  0  0
    0.0000    0.0000    0.0000 O   0  0  0  0  0  0  0  0  0  0  0  0
    0.0000    0.0000    0.0000 C   0  0  0  0  0  0  0  0  0  0  0  0
    0.0000    0.0000    0.0000 C   0  0  0  0  0  0  0  0  0  0  0  0
    0.0000    0.0000    0.0000 C   0  0  0  0  0  0  0  0  0  0  0  0
    0.0000    0.0000    0.0000 C   0  0  0  0  0  0  0  0  0  0  0  0
    0.0000    0.0000    0.0000 F   0  0  0  0  0  0  0  0  0  0  0  0
    0.0000    0.0000    0.0000 C   0  0  0  0  0  0  0  0  0  0  0  0
    0.0000    0.0000    0.0000 C   0  0  0  0  0  0  0  0  0  0  0  0
    0.0000    0.0000    0.0000 C   0  0  0  0  0  0  0  0  0  0  0  0
    0.0000    0.0000    0.0000 C   0  0  0  0  0  0  0  0  0  0  0  0
    0.0000    0.0000    0.0000 C   0  0  0  0  0  0  0  0  0  0  0  0
    0.0000    0.0000    0.0000 C   0  0  0  0  0  0  0  0  0  0  0  0
    0.0000    0.0000    0.0000 N   0  0  0  0  0  0  0  0  0  0  0  0
    0.0000    0.0000    0.0000 C   0  0  0  0  0  0  0  0  0  0  0  0
    0.0000    0.0000    0.0000 C   0  0  0  0  0  0  0  0  0  0  0  0
    0.0000    0.0000    0.0000 N   0  0  0  0  0  0  0  0  0  0  0  0
    0.0000    0.0000    0.0000 C   0  0  0  0  0  0  0  0  0  0  0  0
    0.0000    0.0000    0.0000 C   0  0  0  0  0  0  0  0  0  0  0  0
    0.0000    0.0000    0.0000 C   0  0  0  0  0  0  0  0  0  0  0  0
    0.0000    0.0000    0.0000 C   0  0  0  0  0  0  0  0  0  0  0  0
    0.0000    0.0000    0.0000 C   0  0  0  0  0  0  0  0  0  0  0  0
    0.0000    0.0000    0.0000 C   0  0  0  0  0  0  0  0  0  0  0  0
    0.0000    0.0000    0.0000 C   0  0  0  0  0  0  0  0  0  0  0  0
    0.0000    0.0000    0.0000 C   0  0  0  0  0  0  0  0  0  0  0  0
    0.0000    0.0000    0.0000 C   0  0  0  0  0  0  0  0  0  0  0  0
    0.0000    0.0000    0.0000 C   0  0  0  0  0  0  0  0  0  0  0  0
    0.0000    0.0000    0.0000 C   0  0  0  0  0  0  0  0  0  0  0  0
    0.0000    0.0000    0.0000 O   0  0  0  0  0  0  0  0  0  0  0  0
  1  2  1  0
  2  3  1  0
  3  4  2  0
  4  5  1  0
  5  6  2  0
  6  7  1  0
  6  8  1  0
  8  9  2  0
  9 10  1  0
 10 11  2  0
 11 12  1  0
 12 13  2  0
 13 14  1  0
 14 15  1  0
 15 16  1  0
 16 17  1  0
 17 18  1  0
 18 19  1  0
 19 20  1  0
 20 21  1  0
 15 22  1  0
 22 23  2  0
 23 24  1  0
 24 25  2  0
 25 26  1  0
 26 27  2  0
 14 28  1  0
 28 29  2  0
  9  3  1  0
 28 10  1  0
 21 17  1  0
 27 22  1  0
M  END
>  <pIC50>  (80) 
5.46

>  <ChEMBL_ID>  (80) 
CHEMBL64284

>  <document_journal>  (80) 
Bioorg. Med. Chem. Lett.

>  <bao_endpoint>  (80) 
BAO_0000190

>  <potential_duplicate>  (80) 
False

>  <uo_units>  (80) 
UO_0000065

>  <canonical_smiles>  (80) 
COc1ccc(F)cc1C2=CC=CN(C(CN3CCCC3)c4ccccc4)C2=O

>  <parent_molecule_chembl_id>  (80) 
CHEMBL64284

>  <assay_type>  (80) 
B

>  <src_id>  (80) 
1

>  <ligand_efficiency>  (80) 
{u'le': u'0.26', u'bei': u'13.91', u'sei': u'16.66', u'lle': u'1.7'}

>  <standard_flag>  (80) 
True

>  <molecule_chembl_id>  (80) 
CHEMBL64284

>  <target_organism>  (80) 
Homo sapiens

>  <standard_units>  (80) 
nM

>  <record_id>  (80) 
105338

>  <document_chembl_id>  (80) 
CHEMBL1135372

>  <bao_format>  (80) 
BAO_0000357

>  <data_validity_description>  (80) 
None

>  <activity_id>  (80) 
181581

>  <standard_type>  (80) 
IC50

>  <target_chembl_id>  (80) 
CHEMBL233

>  <data_validity_comment>  (80) 
None

>  <published_value>  (80) 
3460

>  <document_year>  (80) 
2002

>  <target_pref_name>  (80) 
Mu opioid receptor

>  <assay_chembl_id>  (80) 
CHEMBL749747

>  <standard_relation>  (80) 
=

>  <assay_description>  (80) 
Binding affinity towards mu opioid receptor by the displacement of [125I]Enkephalin

>  <published_relation>  (80) 
=

>  <standard_value>  (80) 
3460

>  <qudt_units>  (80) 
http://www.openphacts.org/units/Nanomolar

>  <target_tax_id>  (80) 
9606

>  <bao_label>  (80) 
single protein format

>  <published_units>  (80) 
nM

>  <pchembl_value>  (80) 
5.46

>  <published_type>  (80) 
IC50

>  <activity_comment>  (80) 
None

$$$$

     RDKit          

 38 41  0  0  0  0  0  0  0  0999 V2000
    0.0000    0.0000    0.0000 N   0  0  0  0  0  0  0  0  0  0  0  0
    0.0000    0.0000    0.0000 C   0  0  0  0  0  0  0  0  0  0  0  0
    0.0000    0.0000    0.0000 C   0  0  0  0  0  0  0  0  0  0  0  0
    0.0000    0.0000    0.0000 C   0  0  0  0  0  0  0  0  0  0  0  0
    0.0000    0.0000    0.0000 C   0  0  0  0  0  0  0  0  0  0  0  0
    0.0000    0.0000    0.0000 C   0  0  0  0  0  0  0  0  0  0  0  0
    0.0000    0.0000    0.0000 C   0  0  0  0  0  0  0  0  0  0  0  0
    0.0000    0.0000    0.0000 O   0  0  0  0  0  0  0  0  0  0  0  0
    0.0000    0.0000    0.0000 C   0  0  0  0  0  0  0  0  0  0  0  0
    0.0000    0.0000    0.0000 C   0  0  0  0  0  0  0  0  0  0  0  0
    0.0000    0.0000    0.0000 C   0  0  0  0  0  0  0  0  0  0  0  0
    0.0000    0.0000    0.0000 O   0  0  0  0  0  0  0  0  0  0  0  0
    0.0000    0.0000    0.0000 N   0  0  0  0  0  0  0  0  0  0  0  0
    0.0000    0.0000    0.0000 C   0  0  0  0  0  0  0  0  0  0  0  0
    0.0000    0.0000    0.0000 C   0  0  0  0  0  0  0  0  0  0  0  0
    0.0000    0.0000    0.0000 C   0  0  0  0  0  0  0  0  0  0  0  0
    0.0000    0.0000    0.0000 C   0  0  0  0  0  0  0  0  0  0  0  0
    0.0000    0.0000    0.0000 C   0  0  0  0  0  0  0  0  0  0  0  0
    0.0000    0.0000    0.0000 O   0  0  0  0  0  0  0  0  0  0  0  0
    0.0000    0.0000    0.0000 N   0  0  0  0  0  0  0  0  0  0  0  0
    0.0000    0.0000    0.0000 C   0  0  0  0  0  0  0  0  0  0  0  0
    0.0000    0.0000    0.0000 C   0  0  0  0  0  0  0  0  0  0  0  0
    0.0000    0.0000    0.0000 C   0  0  0  0  0  0  0  0  0  0  0  0
    0.0000    0.0000    0.0000 C   0  0  0  0  0  0  0  0  0  0  0  0
    0.0000    0.0000    0.0000 C   0  0  0  0  0  0  0  0  0  0  0  0
    0.0000    0.0000    0.0000 C   0  0  0  0  0  0  0  0  0  0  0  0
    0.0000    0.0000    0.0000 C   0  0  0  0  0  0  0  0  0  0  0  0
    0.0000    0.0000    0.0000 C   0  0  0  0  0  0  0  0  0  0  0  0
    0.0000    0.0000    0.0000 C   0  0  0  0  0  0  0  0  0  0  0  0
    0.0000    0.0000    0.0000 O   0  0  0  0  0  0  0  0  0  0  0  0
    0.0000    0.0000    0.0000 N   0  0  0  0  0  0  0  0  0  0  0  0
    0.0000    0.0000    0.0000 C   0  0  0  0  0  0  0  0  0  0  0  0
    0.0000    0.0000    0.0000 C   0  0  0  0  0  0  0  0  0  0  0  0
    0.0000    0.0000    0.0000 C   0  0  0  0  0  0  0  0  0  0  0  0
    0.0000    0.0000    0.0000 C   0  0  0  0  0  0  0  0  0  0  0  0
    0.0000    0.0000    0.0000 C   0  0  0  0  0  0  0  0  0  0  0  0
    0.0000    0.0000    0.0000 O   0  0  0  0  0  0  0  0  0  0  0  0
    0.0000    0.0000    0.0000 N   0  0  0  0  0  0  0  0  0  0  0  0
  1  2  1  0
  2  3  1  0
  3  4  1  0
  4  5  2  0
  5  6  1  0
  6  7  2  0
  7  8  1  0
  7  9  1  0
  9 10  2  0
  2 11  1  0
 11 12  2  0
 11 13  1  0
 13 14  1  0
 14 15  1  0
 15 16  1  0
 16 17  1  0
 17 18  1  0
 18 19  2  0
 18 20  1  0
 20 21  1  0
 21 22  1  0
 22 23  1  0
 23 24  2  0
 24 25  1  0
 25 26  2  0
 26 27  1  0
 27 28  2  0
 21 29  1  0
 29 30  2  0
 29 31  1  0
 31 32  1  0
 32 33  1  0
 33 34  1  0
 34 35  1  0
 35 36  1  0
 36 37  2  0
 36 38  1  0
 10  4  1  0
 17 13  1  0
 28 23  1  0
 35 31  1  0
M  END
>  <pIC50>  (81) 
6.5

>  <ChEMBL_ID>  (81) 
CHEMBL362991

>  <document_journal>  (81) 
Bioorg. Med. Chem. Lett.

>  <bao_endpoint>  (81) 
BAO_0000190

>  <potential_duplicate>  (81) 
False

>  <uo_units>  (81) 
UO_0000065

>  <canonical_smiles>  (81) 
N[C@@H](Cc1ccc(O)cc1)C(=O)N2CCC[C@H]2C(=O)N[C@@H](Cc3ccccc3)C(=O)N4CCC[C@H]4C(=O)N

>  <parent_molecule_chembl_id>  (81) 
CHEMBL362991

>  <assay_type>  (81) 
B

>  <src_id>  (81) 
1

>  <ligand_efficiency>  (81) 
{u'le': u'0.23', u'bei': u'12.45', u'sei': u'4.08', u'lle': u'5.66'}

>  <standard_flag>  (81) 
True

>  <molecule_chembl_id>  (81) 
CHEMBL362991

>  <target_organism>  (81) 
Homo sapiens

>  <standard_units>  (81) 
nM

>  <record_id>  (81) 
3542

>  <document_chembl_id>  (81) 
CHEMBL1136639

>  <bao_format>  (81) 
BAO_0000357

>  <data_validity_description>  (81) 
None

>  <activity_id>  (81) 
307395

>  <standard_type>  (81) 
IC50

>  <target_chembl_id>  (81) 
CHEMBL233

>  <data_validity_comment>  (81) 
None

>  <published_value>  (81) 
0.32

>  <document_year>  (81) 
2003

>  <target_pref_name>  (81) 
Mu opioid receptor

>  <assay_chembl_id>  (81) 
CHEMBL756578

>  <standard_relation>  (81) 
=

>  <assay_description>  (81) 
Inhibitory activity against non-selective opiate receptor

>  <published_relation>  (81) 
=

>  <standard_value>  (81) 
320

>  <qudt_units>  (81) 
http://www.openphacts.org/units/Nanomolar

>  <target_tax_id>  (81) 
9606

>  <bao_label>  (81) 
single protein format

>  <published_units>  (81) 
uM

>  <pchembl_value>  (81) 
6.5

>  <published_type>  (81) 
IC50

>  <activity_comment>  (81) 
None

$$$$

     RDKit          

 41 43  0  0  0  0  0  0  0  0999 V2000
    0.0000    0.0000    0.0000 N   0  0  0  0  0  0  0  0  0  0  0  0
    0.0000    0.0000    0.0000 C   0  0  0  0  0  0  0  0  0  0  0  0
    0.0000    0.0000    0.0000 C   0  0  0  0  0  0  0  0  0  0  0  0
    0.0000    0.0000    0.0000 C   0  0  0  0  0  0  0  0  0  0  0  0
    0.0000    0.0000    0.0000 C   0  0  0  0  0  0  0  0  0  0  0  0
    0.0000    0.0000    0.0000 C   0  0  0  0  0  0  0  0  0  0  0  0
    0.0000    0.0000    0.0000 N   0  0  0  0  0  0  0  0  0  0  0  0
    0.0000    0.0000    0.0000 C   0  0  0  0  0  0  0  0  0  0  0  0
    0.0000    0.0000    0.0000 O   0  0  0  0  0  0  0  0  0  0  0  0
    0.0000    0.0000    0.0000 C   0  0  0  0  0  0  0  0  0  0  0  0
    0.0000    0.0000    0.0000 C   0  0  0  0  0  0  0  0  0  0  0  0
    0.0000    0.0000    0.0000 O   0  0  0  0  0  0  0  0  0  0  0  0
    0.0000    0.0000    0.0000 N   0  0  0  0  0  0  0  0  0  0  0  0
    0.0000    0.0000    0.0000 C   0  0  0  0  0  0  0  0  0  0  0  0
    0.0000    0.0000    0.0000 O   0  0  0  0  0  0  0  0  0  0  0  0
    0.0000    0.0000    0.0000 C   0  0  0  0  0  0  0  0  0  0  0  0
    0.0000    0.0000    0.0000 C   0  0  0  0  0  0  0  0  0  0  0  0
    0.0000    0.0000    0.0000 C   0  0  0  0  0  0  0  0  0  0  0  0
    0.0000    0.0000    0.0000 C   0  0  0  0  0  0  0  0  0  0  0  0
    0.0000    0.0000    0.0000 N   0  0  0  0  0  0  0  0  0  0  0  0
    0.0000    0.0000    0.0000 C   0  0  0  0  0  0  0  0  0  0  0  0
    0.0000    0.0000    0.0000 O   0  0  0  0  0  0  0  0  0  0  0  0
    0.0000    0.0000    0.0000 C   0  0  0  0  0  0  0  0  0  0  0  0
    0.0000    0.0000    0.0000 N   0  0  0  0  0  0  0  0  0  0  0  0
    0.0000    0.0000    0.0000 C   0  0  0  0  0  0  0  0  0  0  0  0
    0.0000    0.0000    0.0000 C   0  0  0  0  0  0  0  0  0  0  0  0
    0.0000    0.0000    0.0000 C   0  0  0  0  0  0  0  0  0  0  0  0
    0.0000    0.0000    0.0000 C   0  0  0  0  0  0  0  0  0  0  0  0
    0.0000    0.0000    0.0000 C   0  0  0  0  0  0  0  0  0  0  0  0
    0.0000    0.0000    0.0000 C   0  0  0  0  0  0  0  0  0  0  0  0
    0.0000    0.0000    0.0000 C   0  0  0  0  0  0  0  0  0  0  0  0
    0.0000    0.0000    0.0000 C   0  0  0  0  0  0  0  0  0  0  0  0
    0.0000    0.0000    0.0000 O   0  0  0  0  0  0  0  0  0  0  0  0
    0.0000    0.0000    0.0000 N   0  0  0  0  0  0  0  0  0  0  0  0
    0.0000    0.0000    0.0000 C   0  0  0  0  0  0  0  0  0  0  0  0
    0.0000    0.0000    0.0000 C   0  0  0  0  0  0  0  0  0  0  0  0
    0.0000    0.0000    0.0000 C   0  0  0  0  0  0  0  0  0  0  0  0
    0.0000    0.0000    0.0000 C   0  0  0  0  0  0  0  0  0  0  0  0
    0.0000    0.0000    0.0000 C   0  0  0  0  0  0  0  0  0  0  0  0
    0.0000    0.0000    0.0000 O   0  0  0  0  0  0  0  0  0  0  0  0
    0.0000    0.0000    0.0000 O   0  0  0  0  0  0  0  0  0  0  0  0
  1  2  1  0
  2  3  1  0
  3  4  1  0
  4  5  1  0
  5  6  1  0
  6  7  1  0
  7  8  1  0
  8  9  2  0
  8 10  1  0
 10 11  1  0
 11 12  1  0
 10 13  1  0
 13 14  1  0
 14 15  2  0
 14 16  1  0
 16 17  1  0
 17 18  1  0
 18 19  1  0
 19 20  1  0
 20 21  1  0
 21 22  2  0
 21 23  1  0
 23 24  1  0
 23 25  1  0
 25 26  1  0
 26 27  2  0
 27 28  1  0
 28 29  2  0
 29 30  1  0
 30 31  2  0
  6 32  1  0
 32 33  2  0
 32 34  1  0
 34 35  1  0
 35 36  1  0
 36 37  1  0
 37 38  1  0
 38 39  1  0
 39 40  2  0
 39 41  1  0
 20 16  1  0
 31 26  1  0
 38 34  1  0
M  END
>  <pIC50>  (82) 
4.82

>  <ChEMBL_ID>  (82) 
CHEMBL8072

>  <document_journal>  (82) 
Bioorg. Med. Chem. Lett.

>  <bao_endpoint>  (82) 
BAO_0000190

>  <potential_duplicate>  (82) 
False

>  <uo_units>  (82) 
UO_0000065

>  <canonical_smiles>  (82) 
NCCCC[C@H](NC(=O)[C@H](CO)NC(=O)[C@@H]1CCCN1C(=O)[C@@H](N)Cc2ccccc2)C(=O)N3CCC[C@H]3C(=O)O

>  <parent_molecule_chembl_id>  (82) 
CHEMBL8072

>  <assay_type>  (82) 
B

>  <src_id>  (82) 
1

>  <ligand_efficiency>  (82) 
{u'le': u'0.16', u'bei': u'8.39', u'sei': u'2.31', u'lle': u'8.58'}

>  <standard_flag>  (82) 
True

>  <molecule_chembl_id>  (82) 
CHEMBL8072

>  <target_organism>  (82) 
Homo sapiens

>  <standard_units>  (82) 
nM

>  <record_id>  (82) 
3538

>  <document_chembl_id>  (82) 
CHEMBL1136639

>  <bao_format>  (82) 
BAO_0000357

>  <data_validity_description>  (82) 
None

>  <activity_id>  (82) 
322729

>  <standard_type>  (82) 
IC50

>  <target_chembl_id>  (82) 
CHEMBL233

>  <data_validity_comment>  (82) 
None

>  <published_value>  (82) 
15

>  <document_year>  (82) 
2003

>  <target_pref_name>  (82) 
Mu opioid receptor

>  <assay_chembl_id>  (82) 
CHEMBL756578

>  <standard_relation>  (82) 
=

>  <assay_description>  (82) 
Inhibitory activity against non-selective opiate receptor

>  <published_relation>  (82) 
=

>  <standard_value>  (82) 
15000

>  <qudt_units>  (82) 
http://www.openphacts.org/units/Nanomolar

>  <target_tax_id>  (82) 
9606

>  <bao_label>  (82) 
single protein format

>  <published_units>  (82) 
uM

>  <pchembl_value>  (82) 
4.82

>  <published_type>  (82) 
IC50

>  <activity_comment>  (82) 
None

$$$$

     RDKit          

 49 51  0  0  0  0  0  0  0  0999 V2000
    0.0000    0.0000    0.0000 N   0  0  0  0  0  0  0  0  0  0  0  0
    0.0000    0.0000    0.0000 C   0  0  0  0  0  0  0  0  0  0  0  0
    0.0000    0.0000    0.0000 C   0  0  0  0  0  0  0  0  0  0  0  0
    0.0000    0.0000    0.0000 C   0  0  0  0  0  0  0  0  0  0  0  0
    0.0000    0.0000    0.0000 C   0  0  0  0  0  0  0  0  0  0  0  0
    0.0000    0.0000    0.0000 C   0  0  0  0  0  0  0  0  0  0  0  0
    0.0000    0.0000    0.0000 C   0  0  0  0  0  0  0  0  0  0  0  0
    0.0000    0.0000    0.0000 O   0  0  0  0  0  0  0  0  0  0  0  0
    0.0000    0.0000    0.0000 C   0  0  0  0  0  0  0  0  0  0  0  0
    0.0000    0.0000    0.0000 C   0  0  0  0  0  0  0  0  0  0  0  0
    0.0000    0.0000    0.0000 O   0  0  0  0  0  0  0  0  0  0  0  0
    0.0000    0.0000    0.0000 N   0  0  0  0  0  0  0  0  0  0  0  0
    0.0000    0.0000    0.0000 C   0  0  0  0  0  0  0  0  0  0  0  0
    0.0000    0.0000    0.0000 O   0  0  0  0  0  0  0  0  0  0  0  0
    0.0000    0.0000    0.0000 C   0  0  0  0  0  0  0  0  0  0  0  0
    0.0000    0.0000    0.0000 C   0  0  0  0  0  0  0  0  0  0  0  0
    0.0000    0.0000    0.0000 C   0  0  0  0  0  0  0  0  0  0  0  0
    0.0000    0.0000    0.0000 C   0  0  0  0  0  0  0  0  0  0  0  0
    0.0000    0.0000    0.0000 N   0  0  0  0  0  0  0  0  0  0  0  0
    0.0000    0.0000    0.0000 C   0  0  0  0  0  0  0  0  0  0  0  0
    0.0000    0.0000    0.0000 O   0  0  0  0  0  0  0  0  0  0  0  0
    0.0000    0.0000    0.0000 C   0  0  0  0  0  0  0  0  0  0  0  0
    0.0000    0.0000    0.0000 N   0  0  0  0  0  0  0  0  0  0  0  0
    0.0000    0.0000    0.0000 C   0  0  0  0  0  0  0  0  0  0  0  0
    0.0000    0.0000    0.0000 C   0  0  0  0  0  0  0  0  0  0  0  0
    0.0000    0.0000    0.0000 C   0  0  0  0  0  0  0  0  0  0  0  0
    0.0000    0.0000    0.0000 C   0  0  0  0  0  0  0  0  0  0  0  0
    0.0000    0.0000    0.0000 C   0  0  0  0  0  0  0  0  0  0  0  0
    0.0000    0.0000    0.0000 O   0  0  0  0  0  0  0  0  0  0  0  0
    0.0000    0.0000    0.0000 C   0  0  0  0  0  0  0  0  0  0  0  0
    0.0000    0.0000    0.0000 C   0  0  0  0  0  0  0  0  0  0  0  0
    0.0000    0.0000    0.0000 C   0  0  0  0  0  0  0  0  0  0  0  0
    0.0000    0.0000    0.0000 O   0  0  0  0  0  0  0  0  0  0  0  0
    0.0000    0.0000    0.0000 N   0  0  0  0  0  0  0  0  0  0  0  0
    0.0000    0.0000    0.0000 C   0  0  0  0  0  0  0  0  0  0  0  0
    0.0000    0.0000    0.0000 C   0  0  0  0  0  0  0  0  0  0  0  0
    0.0000    0.0000    0.0000 C   0  0  0  0  0  0  0  0  0  0  0  0
    0.0000    0.0000    0.0000 C   0  0  0  0  0  0  0  0  0  0  0  0
    0.0000    0.0000    0.0000 C   0  0  0  0  0  0  0  0  0  0  0  0
    0.0000    0.0000    0.0000 O   0  0  0  0  0  0  0  0  0  0  0  0
    0.0000    0.0000    0.0000 N   0  0  0  0  0  0  0  0  0  0  0  0
    0.0000    0.0000    0.0000 C   0  0  0  0  0  0  0  0  0  0  0  0
    0.0000    0.0000    0.0000 C   0  0  0  0  0  0  0  0  0  0  0  0
    0.0000    0.0000    0.0000 C   0  0  0  0  0  0  0  0  0  0  0  0
    0.0000    0.0000    0.0000 O   0  0  0  0  0  0  0  0  0  0  0  0
    0.0000    0.0000    0.0000 O   0  0  0  0  0  0  0  0  0  0  0  0
    0.0000    0.0000    0.0000 C   0  0  0  0  0  0  0  0  0  0  0  0
    0.0000    0.0000    0.0000 O   0  0  0  0  0  0  0  0  0  0  0  0
    0.0000    0.0000    0.0000 O   0  0  0  0  0  0  0  0  0  0  0  0
  1  2  1  0
  2  3  1  0
  3  4  1  0
  4  5  1  0
  5  6  1  0
  6  7  1  0
  7  8  2  0
  7  9  1  0
  9 10  1  0
 10 11  1  0
  9 12  1  0
 12 13  1  0
 13 14  2  0
 13 15  1  0
 15 16  1  0
 16 17  1  0
 17 18  1  0
 18 19  1  0
 19 20  1  0
 20 21  2  0
 20 22  1  0
 22 23  1  0
 22 24  1  0
 24 25  1  0
 25 26  2  0
 26 27  1  0
 27 28  2  0
 28 29  1  0
 28 30  1  0
 30 31  2  0
  6 32  1  0
 32 33  2  0
 32 34  1  0
 34 35  1  0
 35 36  1  0
 36 37  1  0
 37 38  1  0
 38 39  1  0
 39 40  2  0
 39 41  1  0
 41 42  1  0
 42 43  1  0
 43 44  1  0
 44 45  2  0
 44 46  1  0
 42 47  1  0
 47 48  2  0
 47 49  1  0
 19 15  1  0
 31 25  1  0
 38 34  1  0
M  END
>  <pIC50>  (83) 
5.75

>  <ChEMBL_ID>  (83) 
CHEMBL276502

>  <document_journal>  (83) 
Bioorg. Med. Chem. Lett.

>  <bao_endpoint>  (83) 
BAO_0000190

>  <potential_duplicate>  (83) 
False

>  <uo_units>  (83) 
UO_0000065

>  <canonical_smiles>  (83) 
NCCCC[C@H](C(=O)[C@H](CO)NC(=O)[C@@H]1CCCN1C(=O)[C@@H](N)Cc2ccc(O)cc2)C(=O)N3CCC[C@H]3C(=O)N[C@H](CC(=O)O)C(=O)O

>  <parent_molecule_chembl_id>  (83) 
CHEMBL276502

>  <assay_type>  (83) 
B

>  <src_id>  (83) 
1

>  <ligand_efficiency>  (83) 
{u'le': u'0.16', u'bei': u'8.32', u'sei': u'2.03', u'lle': u'12.53'}

>  <standard_flag>  (83) 
True

>  <molecule_chembl_id>  (83) 
CHEMBL276502

>  <target_organism>  (83) 
Homo sapiens

>  <standard_units>  (83) 
nM

>  <record_id>  (83) 
3545

>  <document_chembl_id>  (83) 
CHEMBL1136639

>  <bao_format>  (83) 
BAO_0000357

>  <data_validity_description>  (83) 
None

>  <activity_id>  (83) 
322731

>  <standard_type>  (83) 
IC50

>  <target_chembl_id>  (83) 
CHEMBL233

>  <data_validity_comment>  (83) 
None

>  <published_value>  (83) 
1.8

>  <document_year>  (83) 
2003

>  <target_pref_name>  (83) 
Mu opioid receptor

>  <assay_chembl_id>  (83) 
CHEMBL756578

>  <standard_relation>  (83) 
=

>  <assay_description>  (83) 
Inhibitory activity against non-selective opiate receptor

>  <published_relation>  (83) 
=

>  <standard_value>  (83) 
1800

>  <qudt_units>  (83) 
http://www.openphacts.org/units/Nanomolar

>  <target_tax_id>  (83) 
9606

>  <bao_label>  (83) 
single protein format

>  <published_units>  (83) 
uM

>  <pchembl_value>  (83) 
5.75

>  <published_type>  (83) 
IC50

>  <activity_comment>  (83) 
None

$$$$

     RDKit          

124126  0  0  0  0  0  0  0  0999 V2000
    0.0000    0.0000    0.0000 C   0  0  0  0  0  0  0  0  0  0  0  0
    0.0000    0.0000    0.0000 C   0  0  0  0  0  0  0  0  0  0  0  0
    0.0000    0.0000    0.0000 C   0  0  0  0  0  0  0  0  0  0  0  0
    0.0000    0.0000    0.0000 C   0  0  0  0  0  0  0  0  0  0  0  0
    0.0000    0.0000    0.0000 C   0  0  0  0  0  0  0  0  0  0  0  0
    0.0000    0.0000    0.0000 N   0  0  0  0  0  0  0  0  0  0  0  0
    0.0000    0.0000    0.0000 C   0  0  0  0  0  0  0  0  0  0  0  0
    0.0000    0.0000    0.0000 O   0  0  0  0  0  0  0  0  0  0  0  0
    0.0000    0.0000    0.0000 C   0  0  0  0  0  0  0  0  0  0  0  0
    0.0000    0.0000    0.0000 C   0  0  0  0  0  0  0  0  0  0  0  0
    0.0000    0.0000    0.0000 C   0  0  0  0  0  0  0  0  0  0  0  0
    0.0000    0.0000    0.0000 C   0  0  0  0  0  0  0  0  0  0  0  0
    0.0000    0.0000    0.0000 C   0  0  0  0  0  0  0  0  0  0  0  0
    0.0000    0.0000    0.0000 C   0  0  0  0  0  0  0  0  0  0  0  0
    0.0000    0.0000    0.0000 O   0  0  0  0  0  0  0  0  0  0  0  0
    0.0000    0.0000    0.0000 C   0  0  0  0  0  0  0  0  0  0  0  0
    0.0000    0.0000    0.0000 C   0  0  0  0  0  0  0  0  0  0  0  0
    0.0000    0.0000    0.0000 N   0  0  0  0  0  0  0  0  0  0  0  0
    0.0000    0.0000    0.0000 C   0  0  0  0  0  0  0  0  0  0  0  0
    0.0000    0.0000    0.0000 O   0  0  0  0  0  0  0  0  0  0  0  0
    0.0000    0.0000    0.0000 C   0  0  0  0  0  0  0  0  0  0  0  0
    0.0000    0.0000    0.0000 C   0  0  0  0  0  0  0  0  0  0  0  0
    0.0000    0.0000    0.0000 C   0  0  0  0  0  0  0  0  0  0  0  0
    0.0000    0.0000    0.0000 C   0  0  0  0  0  0  0  0  0  0  0  0
    0.0000    0.0000    0.0000 N   0  0  0  0  0  0  0  0  0  0  0  0
    0.0000    0.0000    0.0000 C   0  0  0  0  0  0  0  0  0  0  0  0
    0.0000    0.0000    0.0000 N   0  0  0  0  0  0  0  0  0  0  0  0
    0.0000    0.0000    0.0000 N   0  0  0  0  0  0  0  0  0  0  0  0
    0.0000    0.0000    0.0000 C   0  0  0  0  0  0  0  0  0  0  0  0
    0.0000    0.0000    0.0000 O   0  0  0  0  0  0  0  0  0  0  0  0
    0.0000    0.0000    0.0000 C   0  0  0  0  0  0  0  0  0  0  0  0
    0.0000    0.0000    0.0000 C   0  0  0  0  0  0  0  0  0  0  0  0
    0.0000    0.0000    0.0000 C   0  0  0  0  0  0  0  0  0  0  0  0
    0.0000    0.0000    0.0000 C   0  0  0  0  0  0  0  0  0  0  0  0
    0.0000    0.0000    0.0000 N   0  0  0  0  0  0  0  0  0  0  0  0
    0.0000    0.0000    0.0000 C   0  0  0  0  0  0  0  0  0  0  0  0
    0.0000    0.0000    0.0000 N   0  0  0  0  0  0  0  0  0  0  0  0
    0.0000    0.0000    0.0000 N   0  0  0  0  0  0  0  0  0  0  0  0
    0.0000    0.0000    0.0000 N   0  0  0  0  0  0  0  0  0  0  0  0
    0.0000    0.0000    0.0000 C   0  0  0  0  0  0  0  0  0  0  0  0
    0.0000    0.0000    0.0000 O   0  0  0  0  0  0  0  0  0  0  0  0
    0.0000    0.0000    0.0000 C   0  0  0  0  0  0  0  0  0  0  0  0
    0.0000    0.0000    0.0000 N   0  0  0  0  0  0  0  0  0  0  0  0
    0.0000    0.0000    0.0000 C   0  0  0  0  0  0  0  0  0  0  0  0
    0.0000    0.0000    0.0000 C   0  0  0  0  0  0  0  0  0  0  0  0
    0.0000    0.0000    0.0000 C   0  0  0  0  0  0  0  0  0  0  0  0
    0.0000    0.0000    0.0000 C   0  0  0  0  0  0  0  0  0  0  0  0
    0.0000    0.0000    0.0000 C   0  0  0  0  0  0  0  0  0  0  0  0
    0.0000    0.0000    0.0000 O   0  0  0  0  0  0  0  0  0  0  0  0
    0.0000    0.0000    0.0000 N   0  0  0  0  0  0  0  0  0  0  0  0
    0.0000    0.0000    0.0000 C   0  0  0  0  0  0  0  0  0  0  0  0
    0.0000    0.0000    0.0000 C   0  0  0  0  0  0  0  0  0  0  0  0
    0.0000    0.0000    0.0000 C   0  0  0  0  0  0  0  0  0  0  0  0
    0.0000    0.0000    0.0000 O   0  0  0  0  0  0  0  0  0  0  0  0
    0.0000    0.0000    0.0000 N   0  0  0  0  0  0  0  0  0  0  0  0
    0.0000    0.0000    0.0000 C   0  0  0  0  0  0  0  0  0  0  0  0
    0.0000    0.0000    0.0000 O   0  0  0  0  0  0  0  0  0  0  0  0
    0.0000    0.0000    0.0000 N   0  0  0  0  0  0  0  0  0  0  0  0
    0.0000    0.0000    0.0000 C   0  0  0  0  0  0  0  0  0  0  0  0
    0.0000    0.0000    0.0000 C   0  0  0  0  0  0  0  0  0  0  0  0
    0.0000    0.0000    0.0000 C   0  0  0  0  0  0  0  0  0  0  0  0
    0.0000    0.0000    0.0000 C   0  0  0  0  0  0  0  0  0  0  0  0
    0.0000    0.0000    0.0000 C   0  0  0  0  0  0  0  0  0  0  0  0
    0.0000    0.0000    0.0000 C   0  0  0  0  0  0  0  0  0  0  0  0
    0.0000    0.0000    0.0000 O   0  0  0  0  0  0  0  0  0  0  0  0
    0.0000    0.0000    0.0000 N   0  0  0  0  0  0  0  0  0  0  0  0
    0.0000    0.0000    0.0000 C   0  0  0  0  0  0  0  0  0  0  0  0
    0.0000    0.0000    0.0000 C   0  0  0  0  0  0  0  0  0  0  0  0
    0.0000    0.0000    0.0000 C   0  0  0  0  0  0  0  0  0  0  0  0
    0.0000    0.0000    0.0000 C   0  0  0  0  0  0  0  0  0  0  0  0
    0.0000    0.0000    0.0000 C   0  0  0  0  0  0  0  0  0  0  0  0
    0.0000    0.0000    0.0000 C   0  0  0  0  0  0  0  0  0  0  0  0
    0.0000    0.0000    0.0000 O   0  0  0  0  0  0  0  0  0  0  0  0
    0.0000    0.0000    0.0000 N   0  0  0  0  0  0  0  0  0  0  0  0
    0.0000    0.0000    0.0000 C   0  0  0  0  0  0  0  0  0  0  0  0
    0.0000    0.0000    0.0000 C   0  0  0  0  0  0  0  0  0  0  0  0
    0.0000    0.0000    0.0000 C   0  0  0  0  0  0  0  0  0  0  0  0
    0.0000    0.0000    0.0000 O   0  0  0  0  0  0  0  0  0  0  0  0
    0.0000    0.0000    0.0000 C   0  0  0  0  0  0  0  0  0  0  0  0
    0.0000    0.0000    0.0000 O   0  0  0  0  0  0  0  0  0  0  0  0
    0.0000    0.0000    0.0000 N   0  0  0  0  0  0  0  0  0  0  0  0
    0.0000    0.0000    0.0000 C   0  0  0  0  0  0  0  0  0  0  0  0
    0.0000    0.0000    0.0000 C   0  0  0  0  0  0  0  0  0  0  0  0
    0.0000    0.0000    0.0000 C   0  0  0  0  0  0  0  0  0  0  0  0
    0.0000    0.0000    0.0000 C   0  0  0  0  0  0  0  0  0  0  0  0
    0.0000    0.0000    0.0000 N   0  0  0  0  0  0  0  0  0  0  0  0
    0.0000    0.0000    0.0000 C   0  0  0  0  0  0  0  0  0  0  0  0
    0.0000    0.0000    0.0000 N   0  0  0  0  0  0  0  0  0  0  0  0
    0.0000    0.0000    0.0000 N   0  0  0  0  0  0  0  0  0  0  0  0
    0.0000    0.0000    0.0000 C   0  0  0  0  0  0  0  0  0  0  0  0
    0.0000    0.0000    0.0000 O   0  0  0  0  0  0  0  0  0  0  0  0
    0.0000    0.0000    0.0000 N   0  0  0  0  0  0  0  0  0  0  0  0
    0.0000    0.0000    0.0000 C   0  0  0  0  0  0  0  0  0  0  0  0
    0.0000    0.0000    0.0000 C   0  0  0  0  0  0  0  0  0  0  0  0
    0.0000    0.0000    0.0000 C   0  0  0  0  0  0  0  0  0  0  0  0
    0.0000    0.0000    0.0000 C   0  0  0  0  0  0  0  0  0  0  0  0
    0.0000    0.0000    0.0000 O   0  0  0  0  0  0  0  0  0  0  0  0
    0.0000    0.0000    0.0000 N   0  0  0  0  0  0  0  0  0  0  0  0
    0.0000    0.0000    0.0000 C   0  0  0  0  0  0  0  0  0  0  0  0
    0.0000    0.0000    0.0000 O   0  0  0  0  0  0  0  0  0  0  0  0
    0.0000    0.0000    0.0000 N   0  0  0  0  0  0  0  0  0  0  0  0
    0.0000    0.0000    0.0000 C   0  0  0  0  0  0  0  0  0  0  0  0
    0.0000    0.0000    0.0000 C   0  0  0  0  0  0  0  0  0  0  0  0
    0.0000    0.0000    0.0000 C   0  0  0  0  0  0  0  0  0  0  0  0
    0.0000    0.0000    0.0000 C   0  0  0  0  0  0  0  0  0  0  0  0
    0.0000    0.0000    0.0000 N   0  0  0  0  0  0  0  0  0  0  0  0
    0.0000    0.0000    0.0000 C   0  0  0  0  0  0  0  0  0  0  0  0
    0.0000    0.0000    0.0000 N   0  0  0  0  0  0  0  0  0  0  0  0
    0.0000    0.0000    0.0000 N   0  0  0  0  0  0  0  0  0  0  0  0
    0.0000    0.0000    0.0000 C   0  0  0  0  0  0  0  0  0  0  0  0
    0.0000    0.0000    0.0000 O   0  0  0  0  0  0  0  0  0  0  0  0
    0.0000    0.0000    0.0000 N   0  0  0  0  0  0  0  0  0  0  0  0
    0.0000    0.0000    0.0000 C   0  0  0  0  0  0  0  0  0  0  0  0
    0.0000    0.0000    0.0000 C   0  0  0  0  0  0  0  0  0  0  0  0
    0.0000    0.0000    0.0000 C   0  0  0  0  0  0  0  0  0  0  0  0
    0.0000    0.0000    0.0000 C   0  0  0  0  0  0  0  0  0  0  0  0
    0.0000    0.0000    0.0000 C   0  0  0  0  0  0  0  0  0  0  0  0
    0.0000    0.0000    0.0000 C   0  0  0  0  0  0  0  0  0  0  0  0
    0.0000    0.0000    0.0000 O   0  0  0  0  0  0  0  0  0  0  0  0
    0.0000    0.0000    0.0000 C   0  0  0  0  0  0  0  0  0  0  0  0
    0.0000    0.0000    0.0000 C   0  0  0  0  0  0  0  0  0  0  0  0
    0.0000    0.0000    0.0000 C   0  0  0  0  0  0  0  0  0  0  0  0
    0.0000    0.0000    0.0000 O   0  0  0  0  0  0  0  0  0  0  0  0
    0.0000    0.0000    0.0000 O   0  0  0  0  0  0  0  0  0  0  0  0
  1  2  1  0
  2  3  1  0
  3  4  1  0
  3  5  1  0
  5  6  1  0
  6  7  1  0
  7  8  2  0
  7  9  1  0
  9 10  1  0
 10 11  1  0
 11 12  2  0
 12 13  1  0
 13 14  2  0
 14 15  1  0
 14 16  1  0
 16 17  2  0
  9 18  1  0
 18 19  1  0
 19 20  2  0
 19 21  1  0
 21 22  1  0
 22 23  1  0
 23 24  2  0
 24 25  1  0
 25 26  1  0
 26 27  2  0
 21 28  1  0
 28 29  1  0
 29 30  2  0
 29 31  1  0
 31 32  1  0
 32 33  1  0
 33 34  1  0
 34 35  1  0
 35 36  2  3
 36 37  1  0
 36 38  1  0
 31 39  1  0
 39 40  1  0
 40 41  2  0
 40 42  1  0
 42 43  1  0
 42 44  1  0
 44 45  1  0
 45 46  1  0
 45 47  1  0
  5 48  1  0
 48 49  2  0
 48 50  1  0
 50 51  1  0
 51 52  1  0
 52 53  1  0
 53 54  2  0
 53 55  1  0
 51 56  1  0
 56 57  2  0
 56 58  1  0
 58 59  1  0
 59 60  1  0
 60 61  1  0
 61 62  1  0
 61 63  1  0
 59 64  1  0
 64 65  2  0
 64 66  1  0
 66 67  1  0
 67 68  1  0
 68 69  1  0
 68 70  1  0
 70 71  1  0
 67 72  1  0
 72 73  2  0
 72 74  1  0
 74 75  1  0
 75 76  1  0
 76 77  1  0
 76 78  1  0
 75 79  1  0
 79 80  2  0
 79 81  1  0
 81 82  1  0
 82 83  1  0
 83 84  1  0
 84 85  1  0
 85 86  1  0
 86 87  2  3
 87 88  1  0
 87 89  1  0
 82 90  1  0
 90 91  2  0
 90 92  1  0
 92 93  1  0
 93 94  1  0
 94 95  1  0
 95 96  1  0
 96 97  2  0
 96 98  1  0
 93 99  1  0
 99100  2  0
 99101  1  0
101102  1  0
102103  1  0
103104  1  0
104105  1  0
105106  1  0
106107  2  3
107108  1  0
107109  1  0
102110  1  0
110111  2  0
110112  1  0
112113  1  0
113114  1  0
114115  1  0
115116  2  0
116117  1  0
117118  2  0
118119  1  0
118120  1  0
120121  2  0
113122  1  0
122123  2  0
122124  1  0
 17 11  1  0
 27 23  1  0
121115  1  0
M  END
>  <pIC50>  (84) 
5.16

>  <ChEMBL_ID>  (84) 
CHEMBL410260

>  <document_journal>  (84) 
Bioorg. Med. Chem. Lett.

>  <bao_endpoint>  (84) 
BAO_0000190

>  <potential_duplicate>  (84) 
False

>  <uo_units>  (84) 
UO_0000065

>  <canonical_smiles>  (84) 
CC[C@H](C)[C@H](NC(=O)[C@H](Cc1ccc(O)cc1)NC(=O)[C@H](Cc2c[nH]cn2)NC(=O)[C@H](CCCN=C(N)N)NC(=O)[C@@H](N)CC(C)C)C(=O)N[C@@H](CC(=O)N)C(=O)N[C@@H](CC(C)C)C(=O)N[C@@H]([C@@H](C)CC)C(=O)N[C@@H]([C@@H](C)O)C(=O)N[C@@H](CCCN=C(N)N)C(=O)N[C@@H](CCC(=O)N)C(=O)N[C@@H](CCCN=C(N)N)C(=O)N[C@@H](Cc3ccc(O)cc3)C(=O)O

>  <parent_molecule_chembl_id>  (84) 
CHEMBL410260

>  <assay_type>  (84) 
B

>  <src_id>  (84) 
1

>  <ligand_efficiency>  (84) 
{u'le': None, u'bei': u'2.96', u'sei': None, u'lle': None}

>  <standard_flag>  (84) 
True

>  <molecule_chembl_id>  (84) 
CHEMBL410260

>  <target_organism>  (84) 
Homo sapiens

>  <standard_units>  (84) 
nM

>  <record_id>  (84) 
3540

>  <document_chembl_id>  (84) 
CHEMBL1136639

>  <bao_format>  (84) 
BAO_0000357

>  <data_validity_description>  (84) 
None

>  <activity_id>  (84) 
329190

>  <standard_type>  (84) 
IC50

>  <target_chembl_id>  (84) 
CHEMBL233

>  <data_validity_comment>  (84) 
None

>  <published_value>  (84) 
6.9

>  <document_year>  (84) 
2003

>  <target_pref_name>  (84) 
Mu opioid receptor

>  <assay_chembl_id>  (84) 
CHEMBL756578

>  <standard_relation>  (84) 
=

>  <assay_description>  (84) 
Inhibitory activity against non-selective opiate receptor

>  <published_relation>  (84) 
=

>  <standard_value>  (84) 
6900

>  <qudt_units>  (84) 
http://www.openphacts.org/units/Nanomolar

>  <target_tax_id>  (84) 
9606

>  <bao_label>  (84) 
single protein format

>  <published_units>  (84) 
uM

>  <pchembl_value>  (84) 
5.16

>  <published_type>  (84) 
IC50

>  <activity_comment>  (84) 
None

$$$$

     RDKit          

 40 41  0  0  0  0  0  0  0  0999 V2000
    0.0000    0.0000    0.0000 C   0  0  0  0  0  0  0  0  0  0  0  0
    0.0000    0.0000    0.0000 C   0  0  0  0  0  0  0  0  0  0  0  0
    0.0000    0.0000    0.0000 C   0  0  0  0  0  0  0  0  0  0  0  0
    0.0000    0.0000    0.0000 C   0  0  0  0  0  0  0  0  0  0  0  0
    0.0000    0.0000    0.0000 C   0  0  0  0  0  0  0  0  0  0  0  0
    0.0000    0.0000    0.0000 N   0  0  0  0  0  0  0  0  0  0  0  0
    0.0000    0.0000    0.0000 C   0  0  0  0  0  0  0  0  0  0  0  0
    0.0000    0.0000    0.0000 O   0  0  0  0  0  0  0  0  0  0  0  0
    0.0000    0.0000    0.0000 C   0  0  0  0  0  0  0  0  0  0  0  0
    0.0000    0.0000    0.0000 C   0  0  0  0  0  0  0  0  0  0  0  0
    0.0000    0.0000    0.0000 C   0  0  0  0  0  0  0  0  0  0  0  0
    0.0000    0.0000    0.0000 C   0  0  0  0  0  0  0  0  0  0  0  0
    0.0000    0.0000    0.0000 C   0  0  0  0  0  0  0  0  0  0  0  0
    0.0000    0.0000    0.0000 C   0  0  0  0  0  0  0  0  0  0  0  0
    0.0000    0.0000    0.0000 C   0  0  0  0  0  0  0  0  0  0  0  0
    0.0000    0.0000    0.0000 C   0  0  0  0  0  0  0  0  0  0  0  0
    0.0000    0.0000    0.0000 N   0  0  0  0  0  0  0  0  0  0  0  0
    0.0000    0.0000    0.0000 C   0  0  0  0  0  0  0  0  0  0  0  0
    0.0000    0.0000    0.0000 O   0  0  0  0  0  0  0  0  0  0  0  0
    0.0000    0.0000    0.0000 C   0  0  0  0  0  0  0  0  0  0  0  0
    0.0000    0.0000    0.0000 N   0  0  0  0  0  0  0  0  0  0  0  0
    0.0000    0.0000    0.0000 C   0  0  0  0  0  0  0  0  0  0  0  0
    0.0000    0.0000    0.0000 O   0  0  0  0  0  0  0  0  0  0  0  0
    0.0000    0.0000    0.0000 C   0  0  0  0  0  0  0  0  0  0  0  0
    0.0000    0.0000    0.0000 N   0  0  0  0  0  0  0  0  0  0  0  0
    0.0000    0.0000    0.0000 C   0  0  0  0  0  0  0  0  0  0  0  0
    0.0000    0.0000    0.0000 O   0  0  0  0  0  0  0  0  0  0  0  0
    0.0000    0.0000    0.0000 C   0  0  0  0  0  0  0  0  0  0  0  0
    0.0000    0.0000    0.0000 N   0  0  0  0  0  0  0  0  0  0  0  0
    0.0000    0.0000    0.0000 C   0  0  0  0  0  0  0  0  0  0  0  0
    0.0000    0.0000    0.0000 C   0  0  0  0  0  0  0  0  0  0  0  0
    0.0000    0.0000    0.0000 C   0  0  0  0  0  0  0  0  0  0  0  0
    0.0000    0.0000    0.0000 C   0  0  0  0  0  0  0  0  0  0  0  0
    0.0000    0.0000    0.0000 C   0  0  0  0  0  0  0  0  0  0  0  0
    0.0000    0.0000    0.0000 O   0  0  0  0  0  0  0  0  0  0  0  0
    0.0000    0.0000    0.0000 C   0  0  0  0  0  0  0  0  0  0  0  0
    0.0000    0.0000    0.0000 C   0  0  0  0  0  0  0  0  0  0  0  0
    0.0000    0.0000    0.0000 C   0  0  0  0  0  0  0  0  0  0  0  0
    0.0000    0.0000    0.0000 O   0  0  0  0  0  0  0  0  0  0  0  0
    0.0000    0.0000    0.0000 O   0  0  0  0  0  0  0  0  0  0  0  0
  1  2  1  0
  2  3  1  0
  2  4  1  0
  4  5  1  0
  5  6  1  0
  6  7  1  0
  7  8  2  0
  7  9  1  0
  9 10  1  0
 10 11  1  0
 11 12  2  0
 12 13  1  0
 13 14  2  0
 14 15  1  0
 15 16  2  0
  9 17  1  0
 17 18  1  0
 18 19  2  0
 18 20  1  0
 20 21  1  0
 21 22  1  0
 22 23  2  0
 22 24  1  0
 24 25  1  0
 25 26  1  0
 26 27  2  0
 26 28  1  0
 28 29  1  0
 28 30  1  0
 30 31  1  0
 31 32  2  0
 32 33  1  0
 33 34  2  0
 34 35  1  0
 34 36  1  0
 36 37  2  0
  5 38  1  0
 38 39  2  0
 38 40  1  0
 16 11  1  0
 37 31  1  0
M  END
>  <pIC50>  (85) 
5.02

>  <ChEMBL_ID>  (85) 
CHEMBL8234

>  <document_journal>  (85) 
Bioorg. Med. Chem. Lett.

>  <bao_endpoint>  (85) 
BAO_0000190

>  <potential_duplicate>  (85) 
False

>  <uo_units>  (85) 
UO_0000065

>  <canonical_smiles>  (85) 
CC(C)C[C@H](NC(=O)[C@H](Cc1ccccc1)NC(=O)CNC(=O)CNC(=O)[C@@H](N)Cc2ccc(O)cc2)C(=O)O

>  <parent_molecule_chembl_id>  (85) 
CHEMBL8234

>  <assay_type>  (85) 
B

>  <src_id>  (85) 
1

>  <ligand_efficiency>  (85) 
{u'le': u'0.17', u'bei': u'9.04', u'sei': u'2.51', u'lle': u'6.87'}

>  <standard_flag>  (85) 
True

>  <molecule_chembl_id>  (85) 
CHEMBL8234

>  <target_organism>  (85) 
Homo sapiens

>  <standard_units>  (85) 
nM

>  <record_id>  (85) 
3543

>  <document_chembl_id>  (85) 
CHEMBL1136639

>  <bao_format>  (85) 
BAO_0000357

>  <data_validity_description>  (85) 
None

>  <activity_id>  (85) 
336893

>  <standard_type>  (85) 
IC50

>  <target_chembl_id>  (85) 
CHEMBL233

>  <data_validity_comment>  (85) 
None

>  <published_value>  (85) 
9.5

>  <document_year>  (85) 
2003

>  <target_pref_name>  (85) 
Mu opioid receptor

>  <assay_chembl_id>  (85) 
CHEMBL756578

>  <standard_relation>  (85) 
=

>  <assay_description>  (85) 
Inhibitory activity against non-selective opiate receptor

>  <published_relation>  (85) 
=

>  <standard_value>  (85) 
9500

>  <qudt_units>  (85) 
http://www.openphacts.org/units/Nanomolar

>  <target_tax_id>  (85) 
9606

>  <bao_label>  (85) 
single protein format

>  <published_units>  (85) 
uM

>  <pchembl_value>  (85) 
5.02

>  <published_type>  (85) 
IC50

>  <activity_comment>  (85) 
None

$$$$

     RDKit          

135137  0  0  0  0  0  0  0  0999 V2000
    0.0000    0.0000    0.0000 C   0  0  0  0  0  0  0  0  0  0  0  0
    0.0000    0.0000    0.0000 C   0  0  0  0  0  0  0  0  0  0  0  0
    0.0000    0.0000    0.0000 C   0  0  0  0  0  0  0  0  0  0  0  0
    0.0000    0.0000    0.0000 C   0  0  0  0  0  0  0  0  0  0  0  0
    0.0000    0.0000    0.0000 C   0  0  0  0  0  0  0  0  0  0  0  0
    0.0000    0.0000    0.0000 N   0  0  0  0  0  0  0  0  0  0  0  0
    0.0000    0.0000    0.0000 C   0  0  0  0  0  0  0  0  0  0  0  0
    0.0000    0.0000    0.0000 O   0  0  0  0  0  0  0  0  0  0  0  0
    0.0000    0.0000    0.0000 C   0  0  0  0  0  0  0  0  0  0  0  0
    0.0000    0.0000    0.0000 C   0  0  0  0  0  0  0  0  0  0  0  0
    0.0000    0.0000    0.0000 C   0  0  0  0  0  0  0  0  0  0  0  0
    0.0000    0.0000    0.0000 C   0  0  0  0  0  0  0  0  0  0  0  0
    0.0000    0.0000    0.0000 C   0  0  0  0  0  0  0  0  0  0  0  0
    0.0000    0.0000    0.0000 C   0  0  0  0  0  0  0  0  0  0  0  0
    0.0000    0.0000    0.0000 O   0  0  0  0  0  0  0  0  0  0  0  0
    0.0000    0.0000    0.0000 C   0  0  0  0  0  0  0  0  0  0  0  0
    0.0000    0.0000    0.0000 C   0  0  0  0  0  0  0  0  0  0  0  0
    0.0000    0.0000    0.0000 N   0  0  0  0  0  0  0  0  0  0  0  0
    0.0000    0.0000    0.0000 C   0  0  0  0  0  0  0  0  0  0  0  0
    0.0000    0.0000    0.0000 O   0  0  0  0  0  0  0  0  0  0  0  0
    0.0000    0.0000    0.0000 C   0  0  0  0  0  0  0  0  0  0  0  0
    0.0000    0.0000    0.0000 C   0  0  0  0  0  0  0  0  0  0  0  0
    0.0000    0.0000    0.0000 C   0  0  0  0  0  0  0  0  0  0  0  0
    0.0000    0.0000    0.0000 C   0  0  0  0  0  0  0  0  0  0  0  0
    0.0000    0.0000    0.0000 N   0  0  0  0  0  0  0  0  0  0  0  0
    0.0000    0.0000    0.0000 C   0  0  0  0  0  0  0  0  0  0  0  0
    0.0000    0.0000    0.0000 N   0  0  0  0  0  0  0  0  0  0  0  0
    0.0000    0.0000    0.0000 N   0  0  0  0  0  0  0  0  0  0  0  0
    0.0000    0.0000    0.0000 C   0  0  0  0  0  0  0  0  0  0  0  0
    0.0000    0.0000    0.0000 O   0  0  0  0  0  0  0  0  0  0  0  0
    0.0000    0.0000    0.0000 C   0  0  0  0  0  0  0  0  0  0  0  0
    0.0000    0.0000    0.0000 C   0  0  0  0  0  0  0  0  0  0  0  0
    0.0000    0.0000    0.0000 C   0  0  0  0  0  0  0  0  0  0  0  0
    0.0000    0.0000    0.0000 C   0  0  0  0  0  0  0  0  0  0  0  0
    0.0000    0.0000    0.0000 N   0  0  0  0  0  0  0  0  0  0  0  0
    0.0000    0.0000    0.0000 C   0  0  0  0  0  0  0  0  0  0  0  0
    0.0000    0.0000    0.0000 N   0  0  0  0  0  0  0  0  0  0  0  0
    0.0000    0.0000    0.0000 N   0  0  0  0  0  0  0  0  0  0  0  0
    0.0000    0.0000    0.0000 N   0  0  0  0  0  0  0  0  0  0  0  0
    0.0000    0.0000    0.0000 C   0  0  0  0  0  0  0  0  0  0  0  0
    0.0000    0.0000    0.0000 O   0  0  0  0  0  0  0  0  0  0  0  0
    0.0000    0.0000    0.0000 C   0  0  0  0  0  0  0  0  0  0  0  0
    0.0000    0.0000    0.0000 C   0  0  0  0  0  0  0  0  0  0  0  0
    0.0000    0.0000    0.0000 C   0  0  0  0  0  0  0  0  0  0  0  0
    0.0000    0.0000    0.0000 C   0  0  0  0  0  0  0  0  0  0  0  0
    0.0000    0.0000    0.0000 C   0  0  0  0  0  0  0  0  0  0  0  0
    0.0000    0.0000    0.0000 N   0  0  0  0  0  0  0  0  0  0  0  0
    0.0000    0.0000    0.0000 C   0  0  0  0  0  0  0  0  0  0  0  0
    0.0000    0.0000    0.0000 O   0  0  0  0  0  0  0  0  0  0  0  0
    0.0000    0.0000    0.0000 C   0  0  0  0  0  0  0  0  0  0  0  0
    0.0000    0.0000    0.0000 C   0  0  0  0  0  0  0  0  0  0  0  0
    0.0000    0.0000    0.0000 N   0  0  0  0  0  0  0  0  0  0  0  0
    0.0000    0.0000    0.0000 C   0  0  0  0  0  0  0  0  0  0  0  0
    0.0000    0.0000    0.0000 O   0  0  0  0  0  0  0  0  0  0  0  0
    0.0000    0.0000    0.0000 C   0  0  0  0  0  0  0  0  0  0  0  0
    0.0000    0.0000    0.0000 N   0  0  0  0  0  0  0  0  0  0  0  0
    0.0000    0.0000    0.0000 C   0  0  0  0  0  0  0  0  0  0  0  0
    0.0000    0.0000    0.0000 O   0  0  0  0  0  0  0  0  0  0  0  0
    0.0000    0.0000    0.0000 C   0  0  0  0  0  0  0  0  0  0  0  0
    0.0000    0.0000    0.0000 O   0  0  0  0  0  0  0  0  0  0  0  0
    0.0000    0.0000    0.0000 N   0  0  0  0  0  0  0  0  0  0  0  0
    0.0000    0.0000    0.0000 C   0  0  0  0  0  0  0  0  0  0  0  0
    0.0000    0.0000    0.0000 C   0  0  0  0  0  0  0  0  0  0  0  0
    0.0000    0.0000    0.0000 C   0  0  0  0  0  0  0  0  0  0  0  0
    0.0000    0.0000    0.0000 O   0  0  0  0  0  0  0  0  0  0  0  0
    0.0000    0.0000    0.0000 N   0  0  0  0  0  0  0  0  0  0  0  0
    0.0000    0.0000    0.0000 C   0  0  0  0  0  0  0  0  0  0  0  0
    0.0000    0.0000    0.0000 O   0  0  0  0  0  0  0  0  0  0  0  0
    0.0000    0.0000    0.0000 N   0  0  0  0  0  0  0  0  0  0  0  0
    0.0000    0.0000    0.0000 C   0  0  0  0  0  0  0  0  0  0  0  0
    0.0000    0.0000    0.0000 C   0  0  0  0  0  0  0  0  0  0  0  0
    0.0000    0.0000    0.0000 C   0  0  0  0  0  0  0  0  0  0  0  0
    0.0000    0.0000    0.0000 C   0  0  0  0  0  0  0  0  0  0  0  0
    0.0000    0.0000    0.0000 C   0  0  0  0  0  0  0  0  0  0  0  0
    0.0000    0.0000    0.0000 C   0  0  0  0  0  0  0  0  0  0  0  0
    0.0000    0.0000    0.0000 O   0  0  0  0  0  0  0  0  0  0  0  0
    0.0000    0.0000    0.0000 N   0  0  0  0  0  0  0  0  0  0  0  0
    0.0000    0.0000    0.0000 C   0  0  0  0  0  0  0  0  0  0  0  0
    0.0000    0.0000    0.0000 C   0  0  0  0  0  0  0  0  0  0  0  0
    0.0000    0.0000    0.0000 C   0  0  0  0  0  0  0  0  0  0  0  0
    0.0000    0.0000    0.0000 C   0  0  0  0  0  0  0  0  0  0  0  0
    0.0000    0.0000    0.0000 C   0  0  0  0  0  0  0  0  0  0  0  0
    0.0000    0.0000    0.0000 C   0  0  0  0  0  0  0  0  0  0  0  0
    0.0000    0.0000    0.0000 O   0  0  0  0  0  0  0  0  0  0  0  0
    0.0000    0.0000    0.0000 N   0  0  0  0  0  0  0  0  0  0  0  0
    0.0000    0.0000    0.0000 C   0  0  0  0  0  0  0  0  0  0  0  0
    0.0000    0.0000    0.0000 C   0  0  0  0  0  0  0  0  0  0  0  0
    0.0000    0.0000    0.0000 C   0  0  0  0  0  0  0  0  0  0  0  0
    0.0000    0.0000    0.0000 O   0  0  0  0  0  0  0  0  0  0  0  0
    0.0000    0.0000    0.0000 C   0  0  0  0  0  0  0  0  0  0  0  0
    0.0000    0.0000    0.0000 O   0  0  0  0  0  0  0  0  0  0  0  0
    0.0000    0.0000    0.0000 N   0  0  0  0  0  0  0  0  0  0  0  0
    0.0000    0.0000    0.0000 C   0  0  0  0  0  0  0  0  0  0  0  0
    0.0000    0.0000    0.0000 C   0  0  0  0  0  0  0  0  0  0  0  0
    0.0000    0.0000    0.0000 C   0  0  0  0  0  0  0  0  0  0  0  0
    0.0000    0.0000    0.0000 C   0  0  0  0  0  0  0  0  0  0  0  0
    0.0000    0.0000    0.0000 N   0  0  0  0  0  0  0  0  0  0  0  0
    0.0000    0.0000    0.0000 C   0  0  0  0  0  0  0  0  0  0  0  0
    0.0000    0.0000    0.0000 N   0  0  0  0  0  0  0  0  0  0  0  0
    0.0000    0.0000    0.0000 N   0  0  0  0  0  0  0  0  0  0  0  0
    0.0000    0.0000    0.0000 C   0  0  0  0  0  0  0  0  0  0  0  0
    0.0000    0.0000    0.0000 O   0  0  0  0  0  0  0  0  0  0  0  0
    0.0000    0.0000    0.0000 N   0  0  0  0  0  0  0  0  0  0  0  0
    0.0000    0.0000    0.0000 C   0  0  0  0  0  0  0  0  0  0  0  0
    0.0000    0.0000    0.0000 C   0  0  0  0  0  0  0  0  0  0  0  0
    0.0000    0.0000    0.0000 C   0  0  0  0  0  0  0  0  0  0  0  0
    0.0000    0.0000    0.0000 C   0  0  0  0  0  0  0  0  0  0  0  0
    0.0000    0.0000    0.0000 O   0  0  0  0  0  0  0  0  0  0  0  0
    0.0000    0.0000    0.0000 N   0  0  0  0  0  0  0  0  0  0  0  0
    0.0000    0.0000    0.0000 C   0  0  0  0  0  0  0  0  0  0  0  0
    0.0000    0.0000    0.0000 O   0  0  0  0  0  0  0  0  0  0  0  0
    0.0000    0.0000    0.0000 N   0  0  0  0  0  0  0  0  0  0  0  0
    0.0000    0.0000    0.0000 C   0  0  0  0  0  0  0  0  0  0  0  0
    0.0000    0.0000    0.0000 C   0  0  0  0  0  0  0  0  0  0  0  0
    0.0000    0.0000    0.0000 C   0  0  0  0  0  0  0  0  0  0  0  0
    0.0000    0.0000    0.0000 C   0  0  0  0  0  0  0  0  0  0  0  0
    0.0000    0.0000    0.0000 N   0  0  0  0  0  0  0  0  0  0  0  0
    0.0000    0.0000    0.0000 C   0  0  0  0  0  0  0  0  0  0  0  0
    0.0000    0.0000    0.0000 N   0  0  0  0  0  0  0  0  0  0  0  0
    0.0000    0.0000    0.0000 N   0  0  0  0  0  0  0  0  0  0  0  0
    0.0000    0.0000    0.0000 C   0  0  0  0  0  0  0  0  0  0  0  0
    0.0000    0.0000    0.0000 O   0  0  0  0  0  0  0  0  0  0  0  0
    0.0000    0.0000    0.0000 N   0  0  0  0  0  0  0  0  0  0  0  0
    0.0000    0.0000    0.0000 C   0  0  0  0  0  0  0  0  0  0  0  0
    0.0000    0.0000    0.0000 C   0  0  0  0  0  0  0  0  0  0  0  0
    0.0000    0.0000    0.0000 C   0  0  0  0  0  0  0  0  0  0  0  0
    0.0000    0.0000    0.0000 C   0  0  0  0  0  0  0  0  0  0  0  0
    0.0000    0.0000    0.0000 C   0  0  0  0  0  0  0  0  0  0  0  0
    0.0000    0.0000    0.0000 C   0  0  0  0  0  0  0  0  0  0  0  0
    0.0000    0.0000    0.0000 O   0  0  0  0  0  0  0  0  0  0  0  0
    0.0000    0.0000    0.0000 C   0  0  0  0  0  0  0  0  0  0  0  0
    0.0000    0.0000    0.0000 C   0  0  0  0  0  0  0  0  0  0  0  0
    0.0000    0.0000    0.0000 C   0  0  0  0  0  0  0  0  0  0  0  0
    0.0000    0.0000    0.0000 O   0  0  0  0  0  0  0  0  0  0  0  0
    0.0000    0.0000    0.0000 O   0  0  0  0  0  0  0  0  0  0  0  0
  1  2  1  0
  2  3  1  0
  3  4  1  0
  3  5  1  0
  5  6  1  0
  6  7  1  0
  7  8  2  0
  7  9  1  0
  9 10  1  0
 10 11  1  0
 11 12  2  0
 12 13  1  0
 13 14  2  0
 14 15  1  0
 14 16  1  0
 16 17  2  0
  9 18  1  0
 18 19  1  0
 19 20  2  0
 19 21  1  0
 21 22  1  0
 22 23  1  0
 23 24  2  0
 24 25  1  0
 25 26  1  0
 26 27  2  0
 21 28  1  0
 28 29  1  0
 29 30  2  0
 29 31  1  0
 31 32  1  0
 32 33  1  0
 33 34  1  0
 34 35  1  0
 35 36  2  3
 36 37  1  0
 36 38  1  0
 31 39  1  0
 39 40  1  0
 40 41  2  0
 40 42  1  0
 42 43  1  0
 43 44  1  0
 44 45  1  0
 44 46  1  0
 42 47  1  0
 47 48  1  0
 48 49  2  0
 48 50  1  0
 50 51  1  0
 50 52  1  0
 52 53  1  0
 53 54  2  0
 53 55  1  0
 55 56  1  0
 55 57  1  0
 57 58  1  0
  5 59  1  0
 59 60  2  0
 59 61  1  0
 61 62  1  0
 62 63  1  0
 63 64  1  0
 64 65  2  0
 64 66  1  0
 62 67  1  0
 67 68  2  0
 67 69  1  0
 69 70  1  0
 70 71  1  0
 71 72  1  0
 72 73  1  0
 72 74  1  0
 70 75  1  0
 75 76  2  0
 75 77  1  0
 77 78  1  0
 78 79  1  0
 79 80  1  0
 79 81  1  0
 81 82  1  0
 78 83  1  0
 83 84  2  0
 83 85  1  0
 85 86  1  0
 86 87  1  0
 87 88  1  0
 87 89  1  0
 86 90  1  0
 90 91  2  0
 90 92  1  0
 92 93  1  0
 93 94  1  0
 94 95  1  0
 95 96  1  0
 96 97  1  0
 97 98  2  3
 98 99  1  0
 98100  1  0
 93101  1  0
101102  2  0
101103  1  0
103104  1  0
104105  1  0
105106  1  0
106107  1  0
107108  2  0
107109  1  0
104110  1  0
110111  2  0
110112  1  0
112113  1  0
113114  1  0
114115  1  0
115116  1  0
116117  1  0
117118  2  3
118119  1  0
118120  1  0
113121  1  0
121122  2  0
121123  1  0
123124  1  0
124125  1  0
125126  1  0
126127  2  0
127128  1  0
128129  2  0
129130  1  0
129131  1  0
131132  2  0
124133  1  0
133134  2  0
133135  1  0
 17 11  1  0
 27 23  1  0
132126  1  0
M  END
>  <pIC50>  (86) 
5.0

>  <ChEMBL_ID>  (86) 
CHEMBL428276

>  <document_journal>  (86) 
Bioorg. Med. Chem. Lett.

>  <bao_endpoint>  (86) 
BAO_0000190

>  <potential_duplicate>  (86) 
False

>  <uo_units>  (86) 
UO_0000065

>  <canonical_smiles>  (86) 
CC[C@H](C)[C@H](NC(=O)[C@H](Cc1ccc(O)cc1)NC(=O)[C@H](Cc2c[nH]cn2)NC(=O)[C@H](CCCN=C(N)N)NC(=O)[C@H](CC(C)C)NC(=O)[C@H](C)NC(=O)[C@@H](N)CO)C(=O)N[C@@H](CC(=O)N)C(=O)N[C@@H](CC(C)C)C(=O)N[C@@H]([C@@H](C)CC)C(=O)N[C@@H]([C@@H](C)O)C(=O)N[C@@H](CCCN=C(N)N)C(=O)N[C@@H](CCC(=O)N)C(=O)N[C@@H](CCCN=C(N)N)C(=O)N[C@@H](Cc3ccc(O)cc3)C(=O)O

>  <parent_molecule_chembl_id>  (86) 
CHEMBL428276

>  <assay_type>  (86) 
B

>  <src_id>  (86) 
1

>  <ligand_efficiency>  (86) 
{u'le': None, u'bei': u'2.63', u'sei': None, u'lle': None}

>  <standard_flag>  (86) 
True

>  <molecule_chembl_id>  (86) 
CHEMBL428276

>  <target_organism>  (86) 
Homo sapiens

>  <standard_units>  (86) 
nM

>  <record_id>  (86) 
3539

>  <document_chembl_id>  (86) 
CHEMBL1136639

>  <bao_format>  (86) 
BAO_0000357

>  <data_validity_description>  (86) 
None

>  <activity_id>  (86) 
343199

>  <standard_type>  (86) 
IC50

>  <target_chembl_id>  (86) 
CHEMBL233

>  <data_validity_comment>  (86) 
None

>  <published_value>  (86) 
10

>  <document_year>  (86) 
2003

>  <target_pref_name>  (86) 
Mu opioid receptor

>  <assay_chembl_id>  (86) 
CHEMBL756578

>  <standard_relation>  (86) 
=

>  <assay_description>  (86) 
Inhibitory activity against non-selective opiate receptor

>  <published_relation>  (86) 
=

>  <standard_value>  (86) 
10000

>  <qudt_units>  (86) 
http://www.openphacts.org/units/Nanomolar

>  <target_tax_id>  (86) 
9606

>  <bao_label>  (86) 
single protein format

>  <published_units>  (86) 
uM

>  <pchembl_value>  (86) 
5

>  <published_type>  (86) 
IC50

>  <activity_comment>  (86) 
None

$$$$

     RDKit          

 18 20  0  0  0  0  0  0  0  0999 V2000
    0.0000    0.0000    0.0000 C   0  0  0  0  0  0  0  0  0  0  0  0
    0.0000    0.0000    0.0000 C   0  0  0  0  0  0  0  0  0  0  0  0
    0.0000    0.0000    0.0000 C   0  0  0  0  0  0  0  0  0  0  0  0
    0.0000    0.0000    0.0000 C   0  0  0  0  0  0  0  0  0  0  0  0
    0.0000    0.0000    0.0000 C   0  0  0  0  0  0  0  0  0  0  0  0
    0.0000    0.0000    0.0000 N   0  0  0  0  0  0  0  0  0  0  0  0
    0.0000    0.0000    0.0000 C   0  0  0  0  0  0  0  0  0  0  0  0
    0.0000    0.0000    0.0000 C   0  0  0  0  0  0  0  0  0  0  0  0
    0.0000    0.0000    0.0000 C   0  0  0  0  0  0  0  0  0  0  0  0
    0.0000    0.0000    0.0000 C   0  0  0  0  0  0  0  0  0  0  0  0
    0.0000    0.0000    0.0000 C   0  0  0  0  0  0  0  0  0  0  0  0
    0.0000    0.0000    0.0000 C   0  0  0  0  0  0  0  0  0  0  0  0
    0.0000    0.0000    0.0000 C   0  0  0  0  0  0  0  0  0  0  0  0
    0.0000    0.0000    0.0000 C   0  0  0  0  0  0  0  0  0  0  0  0
    0.0000    0.0000    0.0000 C   0  0  0  0  0  0  0  0  0  0  0  0
    0.0000    0.0000    0.0000 C   0  0  0  0  0  0  0  0  0  0  0  0
    0.0000    0.0000    0.0000 C   0  0  0  0  0  0  0  0  0  0  0  0
    0.0000    0.0000    0.0000 C   0  0  0  0  0  0  0  0  0  0  0  0
  1  2  1  0
  2  3  1  0
  3  4  1  0
  4  5  1  0
  5  6  1  0
  3  7  1  0
  7  8  2  0
  8  9  1  0
  9 10  2  0
 10 11  1  0
 11 12  2  0
  3 13  1  0
 13 14  2  0
 14 15  1  0
 15 16  2  0
 16 17  1  0
 17 18  2  0
  6  1  1  0
 12  7  1  0
 18 13  1  0
M  END
>  <pIC50>  (87) 
4.77

>  <ChEMBL_ID>  (87) 
CHEMBL144261

>  <document_journal>  (87) 
J. Med. Chem.

>  <bao_endpoint>  (87) 
BAO_0000190

>  <potential_duplicate>  (87) 
False

>  <uo_units>  (87) 
UO_0000065

>  <canonical_smiles>  (87) 
C1CC(CCN1)(c2ccccc2)c3ccccc3

>  <parent_molecule_chembl_id>  (87) 
CHEMBL144261

>  <assay_type>  (87) 
B

>  <src_id>  (87) 
1

>  <ligand_efficiency>  (87) 
{u'le': u'0.36', u'bei': u'20.1', u'sei': u'39.65', u'lle': u'1.55'}

>  <standard_flag>  (87) 
True

>  <molecule_chembl_id>  (87) 
CHEMBL144261

>  <target_organism>  (87) 
Homo sapiens

>  <standard_units>  (87) 
nM

>  <record_id>  (87) 
279668

>  <document_chembl_id>  (87) 
CHEMBL1132477

>  <bao_format>  (87) 
BAO_0000357

>  <data_validity_description>  (87) 
None

>  <activity_id>  (87) 
346319

>  <standard_type>  (87) 
IC50

>  <target_chembl_id>  (87) 
CHEMBL233

>  <data_validity_comment>  (87) 
None

>  <published_value>  (87) 
17

>  <document_year>  (87) 
1999

>  <target_pref_name>  (87) 
Mu opioid receptor

>  <assay_chembl_id>  (87) 
CHEMBL874639

>  <standard_relation>  (87) 
=

>  <assay_description>  (87) 
Inhibitory concentration against Opioid receptor mu 1 using [3H]DAMGO ligand

>  <published_relation>  (87) 
=

>  <standard_value>  (87) 
17000

>  <qudt_units>  (87) 
http://www.openphacts.org/units/Nanomolar

>  <target_tax_id>  (87) 
9606

>  <bao_label>  (87) 
single protein format

>  <published_units>  (87) 
uM

>  <pchembl_value>  (87) 
4.77

>  <published_type>  (87) 
IC50

>  <activity_comment>  (87) 
None

$$$$

     RDKit          

 22 24  0  0  0  0  0  0  0  0999 V2000
    0.0000    0.0000    0.0000 C   0  0  0  0  0  0  0  0  0  0  0  0
    0.0000    0.0000    0.0000 C   0  0  0  0  0  0  0  0  0  0  0  0
    0.0000    0.0000    0.0000 C   0  0  0  0  0  0  0  0  0  0  0  0
    0.0000    0.0000    0.0000 C   0  0  0  0  0  0  0  0  0  0  0  0
    0.0000    0.0000    0.0000 C   0  0  0  0  0  0  0  0  0  0  0  0
    0.0000    0.0000    0.0000 C   0  0  0  0  0  0  0  0  0  0  0  0
    0.0000    0.0000    0.0000 C   0  0  0  0  0  0  0  0  0  0  0  0
    0.0000    0.0000    0.0000 C   0  0  0  0  0  0  0  0  0  0  0  0
    0.0000    0.0000    0.0000 C   0  0  0  0  0  0  0  0  0  0  0  0
    0.0000    0.0000    0.0000 C   0  0  0  0  0  0  0  0  0  0  0  0
    0.0000    0.0000    0.0000 C   0  0  0  0  0  0  0  0  0  0  0  0
    0.0000    0.0000    0.0000 N   0  0  0  0  0  0  0  0  0  0  0  0
    0.0000    0.0000    0.0000 C   0  0  0  0  0  0  0  0  0  0  0  0
    0.0000    0.0000    0.0000 C   0  0  0  0  0  0  0  0  0  0  0  0
    0.0000    0.0000    0.0000 C   0  0  0  0  0  0  0  0  0  0  0  0
    0.0000    0.0000    0.0000 C   0  0  0  0  0  0  0  0  0  0  0  0
    0.0000    0.0000    0.0000 C   0  0  0  0  0  0  0  0  0  0  0  0
    0.0000    0.0000    0.0000 C   0  0  0  0  0  0  0  0  0  0  0  0
    0.0000    0.0000    0.0000 C   0  0  0  0  0  0  0  0  0  0  0  0
    0.0000    0.0000    0.0000 C   0  0  0  0  0  0  0  0  0  0  0  0
    0.0000    0.0000    0.0000 C   0  0  0  0  0  0  0  0  0  0  0  0
    0.0000    0.0000    0.0000 C   0  0  0  0  0  0  0  0  0  0  0  0
  1  2  1  0
  2  3  2  0
  3  4  1  0
  4  5  1  0
  4  6  2  0
  6  7  1  0
  7  8  2  0
  7  9  1  0
  9 10  1  0
 10 11  1  0
 11 12  1  0
 12 13  1  0
 13 14  1  0
  9 15  1  0
 15 16  2  0
 16 17  1  0
 17 18  1  0
 17 19  2  0
 19 20  1  0
 20 21  1  0
 20 22  2  0
  8  2  1  0
 14  9  1  0
 22 15  1  0
M  END
>  <pIC50>  (88) 
4.57

>  <ChEMBL_ID>  (88) 
CHEMBL144894

>  <document_journal>  (88) 
J. Med. Chem.

>  <bao_endpoint>  (88) 
BAO_0000190

>  <potential_duplicate>  (88) 
False

>  <uo_units>  (88) 
UO_0000065

>  <canonical_smiles>  (88) 
Cc1cc(C)cc(c1)C2(CCNCC2)c3cc(C)cc(C)c3

>  <parent_molecule_chembl_id>  (88) 
CHEMBL144894

>  <assay_type>  (88) 
B

>  <src_id>  (88) 
1

>  <ligand_efficiency>  (88) 
{u'le': u'0.28', u'bei': u'15.57', u'sei': u'37.98', u'lle': u'-0.6'}

>  <standard_flag>  (88) 
True

>  <molecule_chembl_id>  (88) 
CHEMBL144894

>  <target_organism>  (88) 
Homo sapiens

>  <standard_units>  (88) 
nM

>  <record_id>  (88) 
279666

>  <document_chembl_id>  (88) 
CHEMBL1132477

>  <bao_format>  (88) 
BAO_0000357

>  <data_validity_description>  (88) 
None

>  <activity_id>  (88) 
367476

>  <standard_type>  (88) 
IC50

>  <target_chembl_id>  (88) 
CHEMBL233

>  <data_validity_comment>  (88) 
None

>  <published_value>  (88) 
27

>  <document_year>  (88) 
1999

>  <target_pref_name>  (88) 
Mu opioid receptor

>  <assay_chembl_id>  (88) 
CHEMBL874639

>  <standard_relation>  (88) 
=

>  <assay_description>  (88) 
Inhibitory concentration against Opioid receptor mu 1 using [3H]DAMGO ligand

>  <published_relation>  (88) 
=

>  <standard_value>  (88) 
27000

>  <qudt_units>  (88) 
http://www.openphacts.org/units/Nanomolar

>  <target_tax_id>  (88) 
9606

>  <bao_label>  (88) 
single protein format

>  <published_units>  (88) 
uM

>  <pchembl_value>  (88) 
4.57

>  <published_type>  (88) 
IC50

>  <activity_comment>  (88) 
None

$$$$

     RDKit          

 20 22  0  0  0  0  0  0  0  0999 V2000
    0.0000    0.0000    0.0000 C   0  0  0  0  0  0  0  0  0  0  0  0
    0.0000    0.0000    0.0000 C   0  0  0  0  0  0  0  0  0  0  0  0
    0.0000    0.0000    0.0000 C   0  0  0  0  0  0  0  0  0  0  0  0
    0.0000    0.0000    0.0000 C   0  0  0  0  0  0  0  0  0  0  0  0
    0.0000    0.0000    0.0000 C   0  0  0  0  0  0  0  0  0  0  0  0
    0.0000    0.0000    0.0000 C   0  0  0  0  0  0  0  0  0  0  0  0
    0.0000    0.0000    0.0000 C   0  0  0  0  0  0  0  0  0  0  0  0
    0.0000    0.0000    0.0000 C   0  0  0  0  0  0  0  0  0  0  0  0
    0.0000    0.0000    0.0000 C   0  0  0  0  0  0  0  0  0  0  0  0
    0.0000    0.0000    0.0000 C   0  0  0  0  0  0  0  0  0  0  0  0
    0.0000    0.0000    0.0000 N   0  0  0  0  0  0  0  0  0  0  0  0
    0.0000    0.0000    0.0000 C   0  0  0  0  0  0  0  0  0  0  0  0
    0.0000    0.0000    0.0000 C   0  0  0  0  0  0  0  0  0  0  0  0
    0.0000    0.0000    0.0000 C   0  0  0  0  0  0  0  0  0  0  0  0
    0.0000    0.0000    0.0000 C   0  0  0  0  0  0  0  0  0  0  0  0
    0.0000    0.0000    0.0000 C   0  0  0  0  0  0  0  0  0  0  0  0
    0.0000    0.0000    0.0000 C   0  0  0  0  0  0  0  0  0  0  0  0
    0.0000    0.0000    0.0000 C   0  0  0  0  0  0  0  0  0  0  0  0
    0.0000    0.0000    0.0000 C   0  0  0  0  0  0  0  0  0  0  0  0
    0.0000    0.0000    0.0000 C   0  0  0  0  0  0  0  0  0  0  0  0
  1  2  1  0
  2  3  2  0
  3  4  1  0
  4  5  2  0
  5  6  1  0
  6  7  2  0
  5  8  1  0
  8  9  1  0
  9 10  1  0
 10 11  1  0
 11 12  1  0
 12 13  1  0
  8 14  1  0
 14 15  2  0
 15 16  1  0
 16 17  2  0
 17 18  1  0
 18 19  2  0
 19 20  1  0
  7  2  1  0
 13  8  1  0
 19 14  1  0
M  END
>  <pIC50>  (89) 
5.22

>  <ChEMBL_ID>  (89) 
CHEMBL344967

>  <document_journal>  (89) 
J. Med. Chem.

>  <bao_endpoint>  (89) 
BAO_0000190

>  <potential_duplicate>  (89) 
False

>  <uo_units>  (89) 
UO_0000065

>  <canonical_smiles>  (89) 
Cc1ccc(cc1)C2(CCNCC2)c3ccccc3C

>  <parent_molecule_chembl_id>  (89) 
CHEMBL344967

>  <assay_type>  (89) 
B

>  <src_id>  (89) 
1

>  <ligand_efficiency>  (89) 
{u'le': u'0.36', u'bei': u'19.68', u'sei': u'43.41', u'lle': u'1.02'}

>  <standard_flag>  (89) 
True

>  <molecule_chembl_id>  (89) 
CHEMBL344967

>  <target_organism>  (89) 
Homo sapiens

>  <standard_units>  (89) 
nM

>  <record_id>  (89) 
279667

>  <document_chembl_id>  (89) 
CHEMBL1132477

>  <bao_format>  (89) 
BAO_0000357

>  <data_validity_description>  (89) 
None

>  <activity_id>  (89) 
380106

>  <standard_type>  (89) 
IC50

>  <target_chembl_id>  (89) 
CHEMBL233

>  <data_validity_comment>  (89) 
None

>  <published_value>  (89) 
6

>  <document_year>  (89) 
1999

>  <target_pref_name>  (89) 
Mu opioid receptor

>  <assay_chembl_id>  (89) 
CHEMBL874639

>  <standard_relation>  (89) 
=

>  <assay_description>  (89) 
Inhibitory concentration against Opioid receptor mu 1 using [3H]DAMGO ligand

>  <published_relation>  (89) 
=

>  <standard_value>  (89) 
6000

>  <qudt_units>  (89) 
http://www.openphacts.org/units/Nanomolar

>  <target_tax_id>  (89) 
9606

>  <bao_label>  (89) 
single protein format

>  <published_units>  (89) 
uM

>  <pchembl_value>  (89) 
5.22

>  <published_type>  (89) 
IC50

>  <activity_comment>  (89) 
None

$$$$

     RDKit          

 17 18  0  0  0  0  0  0  0  0999 V2000
    0.0000    0.0000    0.0000 C   0  0  0  0  0  0  0  0  0  0  0  0
    0.0000    0.0000    0.0000 C   0  0  0  0  0  0  0  0  0  0  0  0
    0.0000    0.0000    0.0000 O   0  0  0  0  0  0  0  0  0  0  0  0
    0.0000    0.0000    0.0000 C   0  0  0  0  0  0  0  0  0  0  0  0
    0.0000    0.0000    0.0000 O   0  0  0  0  0  0  0  0  0  0  0  0
    0.0000    0.0000    0.0000 C   0  0  0  0  0  0  0  0  0  0  0  0
    0.0000    0.0000    0.0000 C   0  0  0  0  0  0  0  0  0  0  0  0
    0.0000    0.0000    0.0000 C   0  0  0  0  0  0  0  0  0  0  0  0
    0.0000    0.0000    0.0000 N   0  0  0  0  0  0  0  0  0  0  0  0
    0.0000    0.0000    0.0000 C   0  0  0  0  0  0  0  0  0  0  0  0
    0.0000    0.0000    0.0000 C   0  0  0  0  0  0  0  0  0  0  0  0
    0.0000    0.0000    0.0000 C   0  0  0  0  0  0  0  0  0  0  0  0
    0.0000    0.0000    0.0000 C   0  0  0  0  0  0  0  0  0  0  0  0
    0.0000    0.0000    0.0000 C   0  0  0  0  0  0  0  0  0  0  0  0
    0.0000    0.0000    0.0000 C   0  0  0  0  0  0  0  0  0  0  0  0
    0.0000    0.0000    0.0000 C   0  0  0  0  0  0  0  0  0  0  0  0
    0.0000    0.0000    0.0000 C   0  0  0  0  0  0  0  0  0  0  0  0
  1  2  1  0
  2  3  1  0
  3  4  1  0
  4  5  2  0
  4  6  1  0
  6  7  1  0
  7  8  1  0
  8  9  1  0
  9 10  1  0
 10 11  1  0
  6 12  1  0
 12 13  2  0
 13 14  1  0
 14 15  2  0
 15 16  1  0
 16 17  2  0
 11  6  1  0
 17 12  1  0
M  END
>  <pIC50>  (90) 
5.96

>  <ChEMBL_ID>  (90) 
CHEMBL1052

>  <document_journal>  (90) 
J. Med. Chem.

>  <bao_endpoint>  (90) 
BAO_0000190

>  <potential_duplicate>  (90) 
False

>  <uo_units>  (90) 
UO_0000065

>  <canonical_smiles>  (90) 
CCOC(=O)C1(CCNCC1)c2ccccc2

>  <parent_molecule_chembl_id>  (90) 
CHEMBL1052

>  <assay_type>  (90) 
B

>  <src_id>  (90) 
1

>  <ligand_efficiency>  (90) 
{u'le': u'0.48', u'bei': u'25.54', u'sei': u'15.55', u'lle': u'4.05'}

>  <standard_flag>  (90) 
True

>  <molecule_chembl_id>  (90) 
CHEMBL1052

>  <target_organism>  (90) 
Homo sapiens

>  <standard_units>  (90) 
nM

>  <record_id>  (90) 
279675

>  <document_chembl_id>  (90) 
CHEMBL1132477

>  <bao_format>  (90) 
BAO_0000357

>  <data_validity_description>  (90) 
None

>  <activity_id>  (90) 
380137

>  <standard_type>  (90) 
IC50

>  <target_chembl_id>  (90) 
CHEMBL233

>  <data_validity_comment>  (90) 
None

>  <published_value>  (90) 
1.1

>  <document_year>  (90) 
1999

>  <target_pref_name>  (90) 
Mu opioid receptor

>  <assay_chembl_id>  (90) 
CHEMBL874639

>  <standard_relation>  (90) 
=

>  <assay_description>  (90) 
Inhibitory concentration against Opioid receptor mu 1 using [3H]DAMGO ligand

>  <published_relation>  (90) 
=

>  <standard_value>  (90) 
1100

>  <qudt_units>  (90) 
http://www.openphacts.org/units/Nanomolar

>  <target_tax_id>  (90) 
9606

>  <bao_label>  (90) 
single protein format

>  <published_units>  (90) 
uM

>  <pchembl_value>  (90) 
5.96

>  <published_type>  (90) 
IC50

>  <activity_comment>  (90) 
None

$$$$

     RDKit          

 22 26  0  0  0  0  0  0  0  0999 V2000
    0.0000    0.0000    0.0000 C   0  0  0  0  0  0  0  0  0  0  0  0
    0.0000    0.0000    0.0000 O   0  0  0  0  0  0  0  0  0  0  0  0
    0.0000    0.0000    0.0000 C   0  0  0  0  0  0  0  0  0  0  0  0
    0.0000    0.0000    0.0000 C   0  0  0  0  0  0  0  0  0  0  0  0
    0.0000    0.0000    0.0000 C   0  0  0  0  0  0  0  0  0  0  0  0
    0.0000    0.0000    0.0000 C   0  0  0  0  0  0  0  0  0  0  0  0
    0.0000    0.0000    0.0000 C   0  0  0  0  0  0  0  0  0  0  0  0
    0.0000    0.0000    0.0000 C   0  0  0  0  0  0  0  0  0  0  0  0
    0.0000    0.0000    0.0000 C   0  0  0  0  0  0  0  0  0  0  0  0
    0.0000    0.0000    0.0000 C   0  0  0  0  0  0  0  0  0  0  0  0
    0.0000    0.0000    0.0000 C   0  0  0  0  0  0  0  0  0  0  0  0
    0.0000    0.0000    0.0000 C   0  0  0  0  0  0  0  0  0  0  0  0
    0.0000    0.0000    0.0000 O   0  0  0  0  0  0  0  0  0  0  0  0
    0.0000    0.0000    0.0000 C   0  0  0  0  0  0  0  0  0  0  0  0
    0.0000    0.0000    0.0000 O   0  0  0  0  0  0  0  0  0  0  0  0
    0.0000    0.0000    0.0000 C   0  0  0  0  0  0  0  0  0  0  0  0
    0.0000    0.0000    0.0000 C   0  0  0  0  0  0  0  0  0  0  0  0
    0.0000    0.0000    0.0000 C   0  0  0  0  0  0  0  0  0  0  0  0
    0.0000    0.0000    0.0000 C   0  0  0  0  0  0  0  0  0  0  0  0
    0.0000    0.0000    0.0000 C   0  0  0  0  0  0  0  0  0  0  0  0
    0.0000    0.0000    0.0000 N   0  0  0  0  0  0  0  0  0  0  0  0
    0.0000    0.0000    0.0000 C   0  0  0  0  0  0  0  0  0  0  0  0
  1  2  1  0
  2  3  1  0
  3  4  2  0
  4  5  1  0
  5  6  2  0
  6  7  1  0
  7  8  1  0
  8  9  1  0
  9 10  1  0
 10 11  2  0
 11 12  1  0
 12 13  1  0
 12 14  1  0
 14 15  1  0
 15 16  1  0
 16 17  2  0
 17 18  1  0
 18 19  1  0
 19 20  1  0
 20 21  1  0
 21 22  1  0
 16  3  1  0
 17  6  1  0
 21  8  1  0
 18  9  1  0
 18 14  1  0
M  END
>  <pIC50>  (91) 
6.98

>  <ChEMBL_ID>  (91) 
CHEMBL485

>  <document_journal>  (91) 
J. Med. Chem.

>  <bao_endpoint>  (91) 
BAO_0000190

>  <potential_duplicate>  (91) 
False

>  <uo_units>  (91) 
UO_0000065

>  <canonical_smiles>  (91) 
COc1ccc2C[C@@H]3[C@@H]4C=C[C@H](O)[C@@H]5Oc1c2[C@]45CCN3C

>  <parent_molecule_chembl_id>  (91) 
CHEMBL485

>  <assay_type>  (91) 
B

>  <src_id>  (91) 
1

>  <ligand_efficiency>  (91) 
{u'le': u'0.43', u'bei': u'23.31', u'sei': u'16.64', u'lle': u'5.34'}

>  <standard_flag>  (91) 
True

>  <molecule_chembl_id>  (91) 
CHEMBL485

>  <target_organism>  (91) 
Homo sapiens

>  <standard_units>  (91) 
nM

>  <record_id>  (91) 
279759

>  <document_chembl_id>  (91) 
CHEMBL1145019

>  <bao_format>  (91) 
BAO_0000219

>  <data_validity_description>  (91) 
None

>  <activity_id>  (91) 
593224

>  <standard_type>  (91) 
IC50

>  <target_chembl_id>  (91) 
CHEMBL233

>  <data_validity_comment>  (91) 
None

>  <published_value>  (91) 
105

>  <document_year>  (91) 
2003

>  <target_pref_name>  (91) 
Mu opioid receptor

>  <assay_chembl_id>  (91) 
CHEMBL753178

>  <standard_relation>  (91) 
=

>  <assay_description>  (91) 
In vitro binding affinity against cloned human Opioid receptor mu 1 expressed in HEK 293S cells

>  <published_relation>  (91) 
=

>  <standard_value>  (91) 
105

>  <qudt_units>  (91) 
http://www.openphacts.org/units/Nanomolar

>  <target_tax_id>  (91) 
9606

>  <bao_label>  (91) 
cell-based format

>  <published_units>  (91) 
nM

>  <pchembl_value>  (91) 
6.98

>  <published_type>  (91) 
IC50

>  <activity_comment>  (91) 
None

$$$$

     RDKit          

 22 26  0  0  0  0  0  0  0  0999 V2000
    0.0000    0.0000    0.0000 Br  0  0  0  0  0  0  0  0  0  0  0  0
    0.0000    0.0000    0.0000 C   0  0  0  0  0  0  0  0  0  0  0  0
    0.0000    0.0000    0.0000 C   0  0  0  0  0  0  0  0  0  0  0  0
    0.0000    0.0000    0.0000 C   0  0  0  0  0  0  0  0  0  0  0  0
    0.0000    0.0000    0.0000 C   0  0  0  0  0  0  0  0  0  0  0  0
    0.0000    0.0000    0.0000 C   0  0  0  0  0  0  0  0  0  0  0  0
    0.0000    0.0000    0.0000 C   0  0  0  0  0  0  0  0  0  0  0  0
    0.0000    0.0000    0.0000 N   0  0  0  0  0  0  0  0  0  0  0  0
    0.0000    0.0000    0.0000 C   0  0  0  0  0  0  0  0  0  0  0  0
    0.0000    0.0000    0.0000 C   0  0  0  0  0  0  0  0  0  0  0  0
    0.0000    0.0000    0.0000 C   0  0  0  0  0  0  0  0  0  0  0  0
    0.0000    0.0000    0.0000 C   0  0  0  0  0  0  0  0  0  0  0  0
    0.0000    0.0000    0.0000 C   0  0  0  0  0  0  0  0  0  0  0  0
    0.0000    0.0000    0.0000 C   0  0  0  0  0  0  0  0  0  0  0  0
    0.0000    0.0000    0.0000 C   0  0  0  0  0  0  0  0  0  0  0  0
    0.0000    0.0000    0.0000 C   0  0  0  0  0  0  0  0  0  0  0  0
    0.0000    0.0000    0.0000 C   0  0  0  0  0  0  0  0  0  0  0  0
    0.0000    0.0000    0.0000 C   0  0  0  0  0  0  0  0  0  0  0  0
    0.0000    0.0000    0.0000 Br  0  0  0  0  0  0  0  0  0  0  0  0
    0.0000    0.0000    0.0000 C   0  0  0  0  0  0  0  0  0  0  0  0
    0.0000    0.0000    0.0000 C   0  0  0  0  0  0  0  0  0  0  0  0
    0.0000    0.0000    0.0000 C   0  0  0  0  0  0  0  0  0  0  0  0
  1  2  1  0
  2  3  2  0
  3  4  1  0
  4  5  2  0
  5  6  1  0
  6  7  1  0
  7  8  1  0
  8  9  1  0
  9 10  1  0
 10 11  1  0
 11 12  1  0
 12 13  1  0
 13 14  1  0
 14 15  2  0
 13 16  1  0
 16 17  2  0
 17 18  1  0
 18 19  1  0
 18 20  2  0
 20 21  1  0
 21 22  2  0
 15  2  1  0
 14  5  1  0
 22  7  1  0
 12  8  1  0
 22 16  1  0
M  END
>  <pIC50>  (92) 
6.3

>  <ChEMBL_ID>  (92) 
CHEMBL3707097

>  <document_journal>  (92) 
J. Med. Chem.

>  <bao_endpoint>  (92) 
BAO_0000190

>  <potential_duplicate>  (92) 
False

>  <uo_units>  (92) 
UO_0000065

>  <canonical_smiles>  (92) 
Brc1ccc2C[C@@H]3N4CCC[C@H]4[C@@H](c2c1)c5cc(Br)ccc35

>  <parent_molecule_chembl_id>  (92) 
CHEMBL3707097

>  <assay_type>  (92) 
B

>  <src_id>  (92) 
1

>  <ligand_efficiency>  (92) 
{u'le': u'0.39', u'bei': u'15.03', u'sei': u'194.48', u'lle': u'0.88'}

>  <standard_flag>  (92) 
True

>  <molecule_chembl_id>  (92) 
CHEMBL3707097

>  <target_organism>  (92) 
Homo sapiens

>  <standard_units>  (92) 
nM

>  <record_id>  (92) 
279780

>  <document_chembl_id>  (92) 
CHEMBL1145019

>  <bao_format>  (92) 
BAO_0000219

>  <data_validity_description>  (92) 
None

>  <activity_id>  (92) 
594419

>  <standard_type>  (92) 
IC50

>  <target_chembl_id>  (92) 
CHEMBL233

>  <data_validity_comment>  (92) 
None

>  <published_value>  (92) 
500

>  <document_year>  (92) 
2003

>  <target_pref_name>  (92) 
Mu opioid receptor

>  <assay_chembl_id>  (92) 
CHEMBL753178

>  <standard_relation>  (92) 
=

>  <assay_description>  (92) 
In vitro binding affinity against cloned human Opioid receptor mu 1 expressed in HEK 293S cells

>  <published_relation>  (92) 
=

>  <standard_value>  (92) 
500

>  <qudt_units>  (92) 
http://www.openphacts.org/units/Nanomolar

>  <target_tax_id>  (92) 
9606

>  <bao_label>  (92) 
cell-based format

>  <published_units>  (92) 
nM

>  <pchembl_value>  (92) 
6.3

>  <published_type>  (92) 
IC50

>  <activity_comment>  (92) 
None

$$$$

     RDKit          

 19 22  0  0  0  0  0  0  0  0999 V2000
    0.0000    0.0000    0.0000 C   0  0  0  0  0  0  0  0  0  0  0  0
    0.0000    0.0000    0.0000 N   0  0  0  0  0  0  0  0  0  0  0  0
    0.0000    0.0000    0.0000 C   0  0  0  0  0  0  0  0  0  0  0  0
    0.0000    0.0000    0.0000 C   0  0  0  0  0  0  0  0  0  0  0  0
    0.0000    0.0000    0.0000 C   0  0  0  0  0  0  0  0  0  0  0  0
    0.0000    0.0000    0.0000 C   0  0  0  0  0  0  0  0  0  0  0  0
    0.0000    0.0000    0.0000 C   0  0  0  0  0  0  0  0  0  0  0  0
    0.0000    0.0000    0.0000 C   0  0  0  0  0  0  0  0  0  0  0  0
    0.0000    0.0000    0.0000 C   0  0  0  0  0  0  0  0  0  0  0  0
    0.0000    0.0000    0.0000 C   0  0  0  0  0  0  0  0  0  0  0  0
    0.0000    0.0000    0.0000 C   0  0  0  0  0  0  0  0  0  0  0  0
    0.0000    0.0000    0.0000 C   0  0  0  0  0  0  0  0  0  0  0  0
    0.0000    0.0000    0.0000 C   0  0  0  0  0  0  0  0  0  0  0  0
    0.0000    0.0000    0.0000 C   0  0  0  0  0  0  0  0  0  0  0  0
    0.0000    0.0000    0.0000 C   0  0  0  0  0  0  0  0  0  0  0  0
    0.0000    0.0000    0.0000 C   0  0  0  0  0  0  0  0  0  0  0  0
    0.0000    0.0000    0.0000 O   0  0  0  0  0  0  0  0  0  0  0  0
    0.0000    0.0000    0.0000 C   0  0  0  0  0  0  0  0  0  0  0  0
    0.0000    0.0000    0.0000 C   0  0  0  0  0  0  0  0  0  0  0  0
  1  2  1  0
  2  3  1  0
  3  4  1  0
  4  5  1  0
  5  6  1  0
  6  7  1  0
  7  8  1  0
  8  9  1  0
  9 10  1  0
 10 11  1  0
 11 12  1  0
 12 13  1  0
 13 14  2  0
 14 15  1  0
 15 16  2  0
 16 17  1  0
 16 18  1  0
 18 19  2  0
 11  2  1  0
 10  5  1  0
 19  5  1  0
 19 13  1  0
M  END
>  <pIC50>  (93) 
9.89

>  <ChEMBL_ID>  (93) 
CHEMBL592

>  <document_journal>  (93) 
J. Med. Chem.

>  <bao_endpoint>  (93) 
BAO_0000190

>  <potential_duplicate>  (93) 
False

>  <uo_units>  (93) 
UO_0000065

>  <canonical_smiles>  (93) 
CN1CC[C@]23CCCC[C@H]2[C@H]1Cc4ccc(O)cc34

>  <parent_molecule_chembl_id>  (93) 
CHEMBL592

>  <assay_type>  (93) 
B

>  <src_id>  (93) 
1

>  <ligand_efficiency>  (93) 
{u'le': u'0.71', u'bei': u'38.41', u'sei': u'42.12', u'lle': u'6.44'}

>  <standard_flag>  (93) 
True

>  <molecule_chembl_id>  (93) 
CHEMBL592

>  <target_organism>  (93) 
Homo sapiens

>  <standard_units>  (93) 
nM

>  <record_id>  (93) 
279754

>  <document_chembl_id>  (93) 
CHEMBL1145019

>  <bao_format>  (93) 
BAO_0000219

>  <data_validity_description>  (93) 
None

>  <activity_id>  (93) 
595646

>  <standard_type>  (93) 
IC50

>  <target_chembl_id>  (93) 
CHEMBL233

>  <data_validity_comment>  (93) 
None

>  <published_value>  (93) 
0.13

>  <document_year>  (93) 
2003

>  <target_pref_name>  (93) 
Mu opioid receptor

>  <assay_chembl_id>  (93) 
CHEMBL753178

>  <standard_relation>  (93) 
=

>  <assay_description>  (93) 
In vitro binding affinity against cloned human Opioid receptor mu 1 expressed in HEK 293S cells

>  <published_relation>  (93) 
=

>  <standard_value>  (93) 
0.13

>  <qudt_units>  (93) 
http://www.openphacts.org/units/Nanomolar

>  <target_tax_id>  (93) 
9606

>  <bao_label>  (93) 
cell-based format

>  <published_units>  (93) 
nM

>  <pchembl_value>  (93) 
9.89

>  <published_type>  (93) 
IC50

>  <activity_comment>  (93) 
None

$$$$

     RDKit          

 35 40  0  0  0  0  0  0  0  0999 V2000
    0.0000    0.0000    0.0000 C   0  0  0  0  0  0  0  0  0  0  0  0
    0.0000    0.0000    0.0000 C   0  0  0  0  0  0  0  0  0  0  0  0
    0.0000    0.0000    0.0000 C   0  0  0  0  0  0  0  0  0  0  0  0
    0.0000    0.0000    0.0000 C   0  0  0  0  0  0  0  0  0  0  0  0
    0.0000    0.0000    0.0000 C   0  0  0  0  0  0  0  0  0  0  0  0
    0.0000    0.0000    0.0000 C   0  0  0  0  0  0  0  0  0  0  0  0
    0.0000    0.0000    0.0000 N   0  0  0  0  0  0  0  0  0  0  0  0
    0.0000    0.0000    0.0000 C   0  0  0  0  0  0  0  0  0  0  0  0
    0.0000    0.0000    0.0000 C   0  0  0  0  0  0  0  0  0  0  0  0
    0.0000    0.0000    0.0000 C   0  0  0  0  0  0  0  0  0  0  0  0
    0.0000    0.0000    0.0000 C   0  0  0  0  0  0  0  0  0  0  0  0
    0.0000    0.0000    0.0000 C   0  0  0  0  0  0  0  0  0  0  0  0
    0.0000    0.0000    0.0000 C   0  0  0  0  0  0  0  0  0  0  0  0
    0.0000    0.0000    0.0000 C   0  0  0  0  0  0  0  0  0  0  0  0
    0.0000    0.0000    0.0000 C   0  0  0  0  0  0  0  0  0  0  0  0
    0.0000    0.0000    0.0000 C   0  0  0  0  0  0  0  0  0  0  0  0
    0.0000    0.0000    0.0000 C   0  0  0  0  0  0  0  0  0  0  0  0
    0.0000    0.0000    0.0000 C   0  0  0  0  0  0  0  0  0  0  0  0
    0.0000    0.0000    0.0000 C   0  0  0  0  0  0  0  0  0  0  0  0
    0.0000    0.0000    0.0000 N   0  0  0  0  0  0  0  0  0  0  0  0
    0.0000    0.0000    0.0000 C   0  0  0  0  0  0  0  0  0  0  0  0
    0.0000    0.0000    0.0000 C   0  0  0  0  0  0  0  0  0  0  0  0
    0.0000    0.0000    0.0000 C   0  0  0  0  0  0  0  0  0  0  0  0
    0.0000    0.0000    0.0000 C   0  0  0  0  0  0  0  0  0  0  0  0
    0.0000    0.0000    0.0000 C   0  0  0  0  0  0  0  0  0  0  0  0
    0.0000    0.0000    0.0000 N   0  0  0  0  0  0  0  0  0  0  0  0
    0.0000    0.0000    0.0000 C   0  0  0  0  0  0  0  0  0  0  0  0
    0.0000    0.0000    0.0000 C   0  0  0  0  0  0  0  0  0  0  0  0
    0.0000    0.0000    0.0000 C   0  0  0  0  0  0  0  0  0  0  0  0
    0.0000    0.0000    0.0000 C   0  0  0  0  0  0  0  0  0  0  0  0
    0.0000    0.0000    0.0000 C   0  0  0  0  0  0  0  0  0  0  0  0
    0.0000    0.0000    0.0000 C   0  0  0  0  0  0  0  0  0  0  0  0
    0.0000    0.0000    0.0000 C   0  0  0  0  0  0  0  0  0  0  0  0
    0.0000    0.0000    0.0000 C   0  0  0  0  0  0  0  0  0  0  0  0
    0.0000    0.0000    0.0000 C   0  0  0  0  0  0  0  0  0  0  0  0
  1  2  1  0
  2  3  1  0
  3  4  1  0
  4  5  2  0
  5  6  1  0
  6  7  1  0
  7  8  1  0
  8  9  1  0
  9 10  2  0
 10 11  1  0
 11 12  2  0
 12 13  1  0
 13 14  2  0
  6 15  2  0
 15 16  1  0
 16 17  2  0
 17 18  1  0
 18 19  1  0
 19 20  1  0
 20 21  1  0
 19 22  1  0
 22 23  2  0
 23 24  1  0
 24 25  2  0
 25 26  1  0
 26 27  1  0
 27 28  1  0
 28 29  2  0
 29 30  1  0
 30 31  2  0
 31 32  1  0
 32 33  2  0
 25 34  1  0
 34 35  2  0
 20  2  1  0
 35  3  1  0
 17  4  1  0
 14  9  1  0
 35 22  1  0
 33 28  1  0
M  END
>  <pIC50>  (94) 
8.1

>  <ChEMBL_ID>  (94) 
CHEMBL3707102

>  <document_journal>  (94) 
J. Med. Chem.

>  <bao_endpoint>  (94) 
BAO_0000190

>  <potential_duplicate>  (94) 
False

>  <uo_units>  (94) 
UO_0000065

>  <canonical_smiles>  (94) 
C[C@@H]1[C@H]2c3cc(NCc4ccccc4)ccc3C[C@H](N1C)c5ccc(NCc6ccccc6)cc25

>  <parent_molecule_chembl_id>  (94) 
CHEMBL3707102

>  <assay_type>  (94) 
B

>  <src_id>  (94) 
1

>  <ligand_efficiency>  (94) 
{u'le': u'0.32', u'bei': u'17.62', u'sei': u'29.67', u'lle': u'1.5'}

>  <standard_flag>  (94) 
True

>  <molecule_chembl_id>  (94) 
CHEMBL3707102

>  <target_organism>  (94) 
Homo sapiens

>  <standard_units>  (94) 
nM

>  <record_id>  (94) 
279776

>  <document_chembl_id>  (94) 
CHEMBL1145019

>  <bao_format>  (94) 
BAO_0000219

>  <data_validity_description>  (94) 
None

>  <activity_id>  (94) 
595650

>  <standard_type>  (94) 
IC50

>  <target_chembl_id>  (94) 
CHEMBL233

>  <data_validity_comment>  (94) 
None

>  <published_value>  (94) 
8

>  <document_year>  (94) 
2003

>  <target_pref_name>  (94) 
Mu opioid receptor

>  <assay_chembl_id>  (94) 
CHEMBL753178

>  <standard_relation>  (94) 
=

>  <assay_description>  (94) 
In vitro binding affinity against cloned human Opioid receptor mu 1 expressed in HEK 293S cells

>  <published_relation>  (94) 
=

>  <standard_value>  (94) 
8

>  <qudt_units>  (94) 
http://www.openphacts.org/units/Nanomolar

>  <target_tax_id>  (94) 
9606

>  <bao_label>  (94) 
cell-based format

>  <published_units>  (94) 
nM

>  <pchembl_value>  (94) 
8.1

>  <published_type>  (94) 
IC50

>  <activity_comment>  (94) 
None

$$$$

     RDKit          

 22 26  0  0  0  0  0  0  0  0999 V2000
    0.0000    0.0000    0.0000 F   0  0  0  0  0  0  0  0  0  0  0  0
    0.0000    0.0000    0.0000 C   0  0  0  0  0  0  0  0  0  0  0  0
    0.0000    0.0000    0.0000 C   0  0  0  0  0  0  0  0  0  0  0  0
    0.0000    0.0000    0.0000 C   0  0  0  0  0  0  0  0  0  0  0  0
    0.0000    0.0000    0.0000 C   0  0  0  0  0  0  0  0  0  0  0  0
    0.0000    0.0000    0.0000 C   0  0  0  0  0  0  0  0  0  0  0  0
    0.0000    0.0000    0.0000 C   0  0  0  0  0  0  0  0  0  0  0  0
    0.0000    0.0000    0.0000 N   0  0  0  0  0  0  0  0  0  0  0  0
    0.0000    0.0000    0.0000 C   0  0  0  0  0  0  0  0  0  0  0  0
    0.0000    0.0000    0.0000 C   0  0  0  0  0  0  0  0  0  0  0  0
    0.0000    0.0000    0.0000 C   0  0  0  0  0  0  0  0  0  0  0  0
    0.0000    0.0000    0.0000 C   0  0  0  0  0  0  0  0  0  0  0  0
    0.0000    0.0000    0.0000 C   0  0  0  0  0  0  0  0  0  0  0  0
    0.0000    0.0000    0.0000 C   0  0  0  0  0  0  0  0  0  0  0  0
    0.0000    0.0000    0.0000 C   0  0  0  0  0  0  0  0  0  0  0  0
    0.0000    0.0000    0.0000 C   0  0  0  0  0  0  0  0  0  0  0  0
    0.0000    0.0000    0.0000 C   0  0  0  0  0  0  0  0  0  0  0  0
    0.0000    0.0000    0.0000 C   0  0  0  0  0  0  0  0  0  0  0  0
    0.0000    0.0000    0.0000 F   0  0  0  0  0  0  0  0  0  0  0  0
    0.0000    0.0000    0.0000 C   0  0  0  0  0  0  0  0  0  0  0  0
    0.0000    0.0000    0.0000 C   0  0  0  0  0  0  0  0  0  0  0  0
    0.0000    0.0000    0.0000 C   0  0  0  0  0  0  0  0  0  0  0  0
  1  2  1  0
  2  3  2  0
  3  4  1  0
  4  5  2  0
  5  6  1  0
  6  7  1  0
  7  8  1  0
  8  9  1  0
  9 10  1  0
 10 11  1  0
 11 12  1  0
 12 13  1  0
 13 14  1  0
 14 15  2  0
 13 16  1  0
 16 17  2  0
 17 18  1  0
 18 19  1  0
 18 20  2  0
 20 21  1  0
 21 22  2  0
 15  2  1  0
 14  5  1  0
 22  7  1  0
 12  8  1  0
 22 16  1  0
M  END
>  <pIC50>  (95) 
6.99

>  <ChEMBL_ID>  (95) 
CHEMBL3707078

>  <document_journal>  (95) 
J. Med. Chem.

>  <bao_endpoint>  (95) 
BAO_0000190

>  <potential_duplicate>  (95) 
False

>  <uo_units>  (95) 
UO_0000065

>  <canonical_smiles>  (95) 
Fc1ccc2C[C@@H]3N4CCC[C@H]4[C@@H](c2c1)c5cc(F)ccc35

>  <parent_molecule_chembl_id>  (95) 
CHEMBL3707078

>  <assay_type>  (95) 
B

>  <src_id>  (95) 
1

>  <ligand_efficiency>  (95) 
{u'le': u'0.43', u'bei': u'23.5', u'sei': u'215.65', u'lle': u'2.66'}

>  <standard_flag>  (95) 
True

>  <molecule_chembl_id>  (95) 
CHEMBL3707078

>  <target_organism>  (95) 
Homo sapiens

>  <standard_units>  (95) 
nM

>  <record_id>  (95) 
279793

>  <document_chembl_id>  (95) 
CHEMBL1145019

>  <bao_format>  (95) 
BAO_0000219

>  <data_validity_description>  (95) 
None

>  <activity_id>  (95) 
597069

>  <standard_type>  (95) 
IC50

>  <target_chembl_id>  (95) 
CHEMBL233

>  <data_validity_comment>  (95) 
None

>  <published_value>  (95) 
103

>  <document_year>  (95) 
2003

>  <target_pref_name>  (95) 
Mu opioid receptor

>  <assay_chembl_id>  (95) 
CHEMBL753178

>  <standard_relation>  (95) 
=

>  <assay_description>  (95) 
In vitro binding affinity against cloned human Opioid receptor mu 1 expressed in HEK 293S cells

>  <published_relation>  (95) 
=

>  <standard_value>  (95) 
103

>  <qudt_units>  (95) 
http://www.openphacts.org/units/Nanomolar

>  <target_tax_id>  (95) 
9606

>  <bao_label>  (95) 
cell-based format

>  <published_units>  (95) 
nM

>  <pchembl_value>  (95) 
6.99

>  <published_type>  (95) 
IC50

>  <activity_comment>  (95) 
None

$$$$

     RDKit          

 21 24  0  0  0  0  0  0  0  0999 V2000
    0.0000    0.0000    0.0000 C   0  0  0  0  0  0  0  0  0  0  0  0
    0.0000    0.0000    0.0000 C   0  0  0  0  0  0  0  0  0  0  0  0
    0.0000    0.0000    0.0000 C   0  0  0  0  0  0  0  0  0  0  0  0
    0.0000    0.0000    0.0000 C   0  0  0  0  0  0  0  0  0  0  0  0
    0.0000    0.0000    0.0000 C   0  0  0  0  0  0  0  0  0  0  0  0
    0.0000    0.0000    0.0000 C   0  0  0  0  0  0  0  0  0  0  0  0
    0.0000    0.0000    0.0000 C   0  0  0  0  0  0  0  0  0  0  0  0
    0.0000    0.0000    0.0000 C   0  0  0  0  0  0  0  0  0  0  0  0
    0.0000    0.0000    0.0000 C   0  0  0  0  0  0  0  0  0  0  0  0
    0.0000    0.0000    0.0000 C   0  0  0  0  0  0  0  0  0  0  0  0
    0.0000    0.0000    0.0000 C   0  0  0  0  0  0  0  0  0  0  0  0
    0.0000    0.0000    0.0000 N   0  0  0  0  0  0  0  0  0  0  0  0
    0.0000    0.0000    0.0000 C   0  0  0  0  0  0  0  0  0  0  0  0
    0.0000    0.0000    0.0000 C   0  0  0  0  0  0  0  0  0  0  0  0
    0.0000    0.0000    0.0000 O   0  0  0  0  0  0  0  0  0  0  0  0
    0.0000    0.0000    0.0000 C   0  0  0  0  0  0  0  0  0  0  0  0
    0.0000    0.0000    0.0000 C   0  0  0  0  0  0  0  0  0  0  0  0
    0.0000    0.0000    0.0000 C   0  0  0  0  0  0  0  0  0  0  0  0
    0.0000    0.0000    0.0000 C   0  0  0  0  0  0  0  0  0  0  0  0
    0.0000    0.0000    0.0000 C   0  0  0  0  0  0  0  0  0  0  0  0
    0.0000    0.0000    0.0000 C   0  0  0  0  0  0  0  0  0  0  0  0
  1  2  1  0
  2  3  1  0
  3  4  1  0
  4  5  2  0
  5  6  1  0
  6  7  2  0
  7  8  1  0
  8  9  2  0
  9 10  1  0
 10 11  1  0
 11 12  1  0
 12 13  1  0
 13 14  1  0
 14 15  1  0
 11 16  1  0
 16 17  2  0
 17 18  1  0
 18 19  2  0
 19 20  1  0
 20 21  2  0
 12  2  1  0
 21  3  1  0
  9  4  1  0
 21 16  1  0
M  END
>  <pIC50>  (96) 
6.12

>  <ChEMBL_ID>  (96) 
CHEMBL3706646

>  <document_journal>  (96) 
J. Med. Chem.

>  <bao_endpoint>  (96) 
BAO_0000190

>  <potential_duplicate>  (96) 
False

>  <uo_units>  (96) 
UO_0000065

>  <canonical_smiles>  (96) 
C[C@H]1[C@@H]2c3ccccc3C[C@@H](N1CCO)c4ccccc24

>  <parent_molecule_chembl_id>  (96) 
CHEMBL3706646

>  <assay_type>  (96) 
B

>  <src_id>  (96) 
1

>  <ligand_efficiency>  (96) 
{u'le': u'0.4', u'bei': u'21.89', u'sei': u'26.06', u'lle': u'2.85'}

>  <standard_flag>  (96) 
True

>  <molecule_chembl_id>  (96) 
CHEMBL3706646

>  <target_organism>  (96) 
Homo sapiens

>  <standard_units>  (96) 
nM

>  <record_id>  (96) 
279784

>  <document_chembl_id>  (96) 
CHEMBL1145019

>  <bao_format>  (96) 
BAO_0000219

>  <data_validity_description>  (96) 
None

>  <activity_id>  (96) 
597073

>  <standard_type>  (96) 
IC50

>  <target_chembl_id>  (96) 
CHEMBL233

>  <data_validity_comment>  (96) 
None

>  <published_value>  (96) 
764

>  <document_year>  (96) 
2003

>  <target_pref_name>  (96) 
Mu opioid receptor

>  <assay_chembl_id>  (96) 
CHEMBL753178

>  <standard_relation>  (96) 
=

>  <assay_description>  (96) 
In vitro binding affinity against cloned human Opioid receptor mu 1 expressed in HEK 293S cells

>  <published_relation>  (96) 
=

>  <standard_value>  (96) 
764

>  <qudt_units>  (96) 
http://www.openphacts.org/units/Nanomolar

>  <target_tax_id>  (96) 
9606

>  <bao_label>  (96) 
cell-based format

>  <published_units>  (96) 
nM

>  <pchembl_value>  (96) 
6.12

>  <published_type>  (96) 
IC50

>  <activity_comment>  (96) 
None

$$$$

     RDKit          

 19 22  0  0  0  0  0  0  0  0999 V2000
    0.0000    0.0000    0.0000 C   0  0  0  0  0  0  0  0  0  0  0  0
    0.0000    0.0000    0.0000 C   0  0  0  0  0  0  0  0  0  0  0  0
    0.0000    0.0000    0.0000 C   0  0  0  0  0  0  0  0  0  0  0  0
    0.0000    0.0000    0.0000 C   0  0  0  0  0  0  0  0  0  0  0  0
    0.0000    0.0000    0.0000 C   0  0  0  0  0  0  0  0  0  0  0  0
    0.0000    0.0000    0.0000 C   0  0  0  0  0  0  0  0  0  0  0  0
    0.0000    0.0000    0.0000 C   0  0  0  0  0  0  0  0  0  0  0  0
    0.0000    0.0000    0.0000 C   0  0  0  0  0  0  0  0  0  0  0  0
    0.0000    0.0000    0.0000 C   0  0  0  0  0  0  0  0  0  0  0  0
    0.0000    0.0000    0.0000 C   0  0  0  0  0  0  0  0  0  0  0  0
    0.0000    0.0000    0.0000 C   0  0  0  0  0  0  0  0  0  0  0  0
    0.0000    0.0000    0.0000 N   0  0  0  0  0  0  0  0  0  0  0  0
    0.0000    0.0000    0.0000 C   0  0  0  0  0  0  0  0  0  0  0  0
    0.0000    0.0000    0.0000 C   0  0  0  0  0  0  0  0  0  0  0  0
    0.0000    0.0000    0.0000 C   0  0  0  0  0  0  0  0  0  0  0  0
    0.0000    0.0000    0.0000 C   0  0  0  0  0  0  0  0  0  0  0  0
    0.0000    0.0000    0.0000 C   0  0  0  0  0  0  0  0  0  0  0  0
    0.0000    0.0000    0.0000 C   0  0  0  0  0  0  0  0  0  0  0  0
    0.0000    0.0000    0.0000 C   0  0  0  0  0  0  0  0  0  0  0  0
  1  2  1  0
  2  3  1  0
  3  4  1  0
  4  5  2  0
  5  6  1  0
  6  7  2  0
  7  8  1  0
  8  9  2  0
  9 10  1  0
 10 11  1  0
 11 12  1  0
 12 13  1  0
 11 14  1  0
 14 15  2  0
 15 16  1  0
 16 17  2  0
 17 18  1  0
 18 19  2  0
 12  2  1  0
 19  3  1  0
  9  4  1  0
 19 14  1  0
M  END
>  <pIC50>  (97) 
6.64

>  <ChEMBL_ID>  (97) 
CHEMBL3707100

>  <document_journal>  (97) 
J. Med. Chem.

>  <bao_endpoint>  (97) 
BAO_0000190

>  <potential_duplicate>  (97) 
False

>  <uo_units>  (97) 
UO_0000065

>  <canonical_smiles>  (97) 
C[C@@H]1[C@H]2c3ccccc3C[C@H](N1C)c4ccccc24

>  <parent_molecule_chembl_id>  (97) 
CHEMBL3707100

>  <assay_type>  (97) 
B

>  <src_id>  (97) 
1

>  <ligand_efficiency>  (97) 
{u'le': u'0.48', u'bei': u'26.62', u'sei': u'204.88', u'lle': u'2.83'}

>  <standard_flag>  (97) 
True

>  <molecule_chembl_id>  (97) 
CHEMBL3707100

>  <target_organism>  (97) 
Homo sapiens

>  <standard_units>  (97) 
nM

>  <record_id>  (97) 
279755

>  <document_chembl_id>  (97) 
CHEMBL1145019

>  <bao_format>  (97) 
BAO_0000219

>  <data_validity_description>  (97) 
None

>  <activity_id>  (97) 
599594

>  <standard_type>  (97) 
IC50

>  <target_chembl_id>  (97) 
CHEMBL233

>  <data_validity_comment>  (97) 
None

>  <published_value>  (97) 
230

>  <document_year>  (97) 
2003

>  <target_pref_name>  (97) 
Mu opioid receptor

>  <assay_chembl_id>  (97) 
CHEMBL753178

>  <standard_relation>  (97) 
=

>  <assay_description>  (97) 
In vitro binding affinity against cloned human Opioid receptor mu 1 expressed in HEK 293S cells

>  <published_relation>  (97) 
=

>  <standard_value>  (97) 
230

>  <qudt_units>  (97) 
http://www.openphacts.org/units/Nanomolar

>  <target_tax_id>  (97) 
9606

>  <bao_label>  (97) 
cell-based format

>  <published_units>  (97) 
nM

>  <pchembl_value>  (97) 
6.64

>  <published_type>  (97) 
IC50

>  <activity_comment>  (97) 
None

$$$$

     RDKit          

 38 44  0  0  0  0  0  0  0  0999 V2000
    0.0000    0.0000    0.0000 Br  0  0  0  0  0  0  0  0  0  0  0  0
    0.0000    0.0000    0.0000 C   0  0  0  0  0  0  0  0  0  0  0  0
    0.0000    0.0000    0.0000 C   0  0  0  0  0  0  0  0  0  0  0  0
    0.0000    0.0000    0.0000 C   0  0  0  0  0  0  0  0  0  0  0  0
    0.0000    0.0000    0.0000 C   0  0  0  0  0  0  0  0  0  0  0  0
    0.0000    0.0000    0.0000 C   0  0  0  0  0  0  0  0  0  0  0  0
    0.0000    0.0000    0.0000 N   0  0  0  0  0  0  0  0  0  0  0  0
    0.0000    0.0000    0.0000 C   0  0  0  0  0  0  0  0  0  0  0  0
    0.0000    0.0000    0.0000 C   0  0  0  0  0  0  0  0  0  0  0  0
    0.0000    0.0000    0.0000 C   0  0  0  0  0  0  0  0  0  0  0  0
    0.0000    0.0000    0.0000 C   0  0  0  0  0  0  0  0  0  0  0  0
    0.0000    0.0000    0.0000 C   0  0  0  0  0  0  0  0  0  0  0  0
    0.0000    0.0000    0.0000 C   0  0  0  0  0  0  0  0  0  0  0  0
    0.0000    0.0000    0.0000 N   0  0  0  0  0  0  0  0  0  0  0  0
    0.0000    0.0000    0.0000 C   0  0  0  0  0  0  0  0  0  0  0  0
    0.0000    0.0000    0.0000 C   0  0  0  0  0  0  0  0  0  0  0  0
    0.0000    0.0000    0.0000 C   0  0  0  0  0  0  0  0  0  0  0  0
    0.0000    0.0000    0.0000 C   0  0  0  0  0  0  0  0  0  0  0  0
    0.0000    0.0000    0.0000 C   0  0  0  0  0  0  0  0  0  0  0  0
    0.0000    0.0000    0.0000 C   0  0  0  0  0  0  0  0  0  0  0  0
    0.0000    0.0000    0.0000 C   0  0  0  0  0  0  0  0  0  0  0  0
    0.0000    0.0000    0.0000 C   0  0  0  0  0  0  0  0  0  0  0  0
    0.0000    0.0000    0.0000 C   0  0  0  0  0  0  0  0  0  0  0  0
    0.0000    0.0000    0.0000 C   0  0  0  0  0  0  0  0  0  0  0  0
    0.0000    0.0000    0.0000 N   0  0  0  0  0  0  0  0  0  0  0  0
    0.0000    0.0000    0.0000 C   0  0  0  0  0  0  0  0  0  0  0  0
    0.0000    0.0000    0.0000 C   0  0  0  0  0  0  0  0  0  0  0  0
    0.0000    0.0000    0.0000 C   0  0  0  0  0  0  0  0  0  0  0  0
    0.0000    0.0000    0.0000 C   0  0  0  0  0  0  0  0  0  0  0  0
    0.0000    0.0000    0.0000 C   0  0  0  0  0  0  0  0  0  0  0  0
    0.0000    0.0000    0.0000 Br  0  0  0  0  0  0  0  0  0  0  0  0
    0.0000    0.0000    0.0000 C   0  0  0  0  0  0  0  0  0  0  0  0
    0.0000    0.0000    0.0000 C   0  0  0  0  0  0  0  0  0  0  0  0
    0.0000    0.0000    0.0000 C   0  0  0  0  0  0  0  0  0  0  0  0
    0.0000    0.0000    0.0000 C   0  0  0  0  0  0  0  0  0  0  0  0
    0.0000    0.0000    0.0000 C   0  0  0  0  0  0  0  0  0  0  0  0
    0.0000    0.0000    0.0000 C   0  0  0  0  0  0  0  0  0  0  0  0
    0.0000    0.0000    0.0000 C   0  0  0  0  0  0  0  0  0  0  0  0
  1  2  1  0
  2  3  2  0
  3  4  1  0
  4  5  2  0
  5  6  1  0
  6  7  1  0
  7  8  1  0
  8  9  2  0
  9 10  1  0
 10 11  2  0
 11 12  1  0
 12 13  1  0
 13 14  1  0
 14 15  1  0
 15 16  1  0
 16 17  1  0
 17 18  1  0
 18 19  1  0
 19 20  1  0
 20 21  2  0
 19 22  1  0
 22 23  2  0
 23 24  1  0
 24 25  1  0
 25 26  1  0
 26 27  1  0
 27 28  2  0
 28 29  1  0
 29 30  2  0
 30 31  1  0
 30 32  1  0
 32 33  2  0
 24 34  2  0
 34 35  1  0
 35 36  2  0
  5 37  1  0
 37 38  2  0
 38  2  1  0
 21  8  1  0
 20 11  1  0
 36 13  1  0
 18 14  1  0
 36 22  1  0
 33 27  1  0
M  END
>  <pIC50>  (98) 
6.92

>  <ChEMBL_ID>  (98) 
CHEMBL3707076

>  <document_journal>  (98) 
J. Med. Chem.

>  <bao_endpoint>  (98) 
BAO_0000190

>  <potential_duplicate>  (98) 
False

>  <uo_units>  (98) 
UO_0000065

>  <canonical_smiles>  (98) 
Brc1ccc(CNc2ccc3C[C@@H]4N5CCC[C@H]5[C@@H](c3c2)c6cc(NCc7ccc(Br)cc7)ccc46)cc1

>  <parent_molecule_chembl_id>  (98) 
CHEMBL3707076

>  <assay_type>  (98) 
B

>  <src_id>  (98) 
1

>  <ligand_efficiency>  (98) 
{u'le': u'0.25', u'bei': u'11', u'sei': u'25.36', u'lle': u'-1.28'}

>  <standard_flag>  (98) 
True

>  <molecule_chembl_id>  (98) 
CHEMBL3707076

>  <target_organism>  (98) 
Homo sapiens

>  <standard_units>  (98) 
nM

>  <record_id>  (98) 
279790

>  <document_chembl_id>  (98) 
CHEMBL1145019

>  <bao_format>  (98) 
BAO_0000219

>  <data_validity_description>  (98) 
None

>  <activity_id>  (98) 
599598

>  <standard_type>  (98) 
IC50

>  <target_chembl_id>  (98) 
CHEMBL233

>  <data_validity_comment>  (98) 
None

>  <published_value>  (98) 
120

>  <document_year>  (98) 
2003

>  <target_pref_name>  (98) 
Mu opioid receptor

>  <assay_chembl_id>  (98) 
CHEMBL753178

>  <standard_relation>  (98) 
=

>  <assay_description>  (98) 
In vitro binding affinity against cloned human Opioid receptor mu 1 expressed in HEK 293S cells

>  <published_relation>  (98) 
=

>  <standard_value>  (98) 
120

>  <qudt_units>  (98) 
http://www.openphacts.org/units/Nanomolar

>  <target_tax_id>  (98) 
9606

>  <bao_label>  (98) 
cell-based format

>  <published_units>  (98) 
nM

>  <pchembl_value>  (98) 
6.92

>  <published_type>  (98) 
IC50

>  <activity_comment>  (98) 
None

$$$$

     RDKit          

 31 36  0  0  0  0  0  0  0  0999 V2000
    0.0000    0.0000    0.0000 C   0  0  0  0  0  0  0  0  0  0  0  0
    0.0000    0.0000    0.0000 C   0  0  0  0  0  0  0  0  0  0  0  0
    0.0000    0.0000    0.0000 C   0  0  0  0  0  0  0  0  0  0  0  0
    0.0000    0.0000    0.0000 C   0  0  0  0  0  0  0  0  0  0  0  0
    0.0000    0.0000    0.0000 C   0  0  0  0  0  0  0  0  0  0  0  0
    0.0000    0.0000    0.0000 C   0  0  0  0  0  0  0  0  0  0  0  0
    0.0000    0.0000    0.0000 C   0  0  0  0  0  0  0  0  0  0  0  0
    0.0000    0.0000    0.0000 C   0  0  0  0  0  0  0  0  0  0  0  0
    0.0000    0.0000    0.0000 C   0  0  0  0  0  0  0  0  0  0  0  0
    0.0000    0.0000    0.0000 C   0  0  0  0  0  0  0  0  0  0  0  0
    0.0000    0.0000    0.0000 C   0  0  0  0  0  0  0  0  0  0  0  0
    0.0000    0.0000    0.0000 N   0  0  0  0  0  0  0  0  0  0  0  0
    0.0000    0.0000    0.0000 C   0  0  0  0  0  0  0  0  0  0  0  0
    0.0000    0.0000    0.0000 C   0  0  0  0  0  0  0  0  0  0  0  0
    0.0000    0.0000    0.0000 C   0  0  0  0  0  0  0  0  0  0  0  0
    0.0000    0.0000    0.0000 C   0  0  0  0  0  0  0  0  0  0  0  0
    0.0000    0.0000    0.0000 C   0  0  0  0  0  0  0  0  0  0  0  0
    0.0000    0.0000    0.0000 C   0  0  0  0  0  0  0  0  0  0  0  0
    0.0000    0.0000    0.0000 C   0  0  0  0  0  0  0  0  0  0  0  0
    0.0000    0.0000    0.0000 N   0  0  0  0  0  0  0  0  0  0  0  0
    0.0000    0.0000    0.0000 C   0  0  0  0  0  0  0  0  0  0  0  0
    0.0000    0.0000    0.0000 C   0  0  0  0  0  0  0  0  0  0  0  0
    0.0000    0.0000    0.0000 O   0  0  0  0  0  0  0  0  0  0  0  0
    0.0000    0.0000    0.0000 C   0  0  0  0  0  0  0  0  0  0  0  0
    0.0000    0.0000    0.0000 C   0  0  0  0  0  0  0  0  0  0  0  0
    0.0000    0.0000    0.0000 N   0  0  0  0  0  0  0  0  0  0  0  0
    0.0000    0.0000    0.0000 C   0  0  0  0  0  0  0  0  0  0  0  0
    0.0000    0.0000    0.0000 C   0  0  0  0  0  0  0  0  0  0  0  0
    0.0000    0.0000    0.0000 O   0  0  0  0  0  0  0  0  0  0  0  0
    0.0000    0.0000    0.0000 C   0  0  0  0  0  0  0  0  0  0  0  0
    0.0000    0.0000    0.0000 C   0  0  0  0  0  0  0  0  0  0  0  0
  1  2  1  0
  2  3  1  0
  3  4  1  0
  4  5  2  0
  5  6  1  0
  6  7  2  0
  7  8  1  0
  8  9  2  0
  9 10  1  0
 10 11  1  0
 11 12  1  0
 12 13  1  0
 11 14  1  0
 14 15  2  0
 15 16  1  0
 16 17  2  0
 17 18  1  0
 18 19  2  0
 17 20  1  0
 20 21  1  0
 21 22  1  0
 22 23  1  0
 23 24  1  0
 24 25  1  0
  6 26  1  0
 26 27  1  0
 27 28  1  0
 28 29  1  0
 29 30  1  0
 30 31  1  0
 12  2  1  0
 19  3  1  0
  9  4  1  0
 19 14  1  0
 25 20  1  0
 31 26  1  0
M  END
>  <pIC50>  (99) 
6.16

>  <ChEMBL_ID>  (99) 
CHEMBL3707093

>  <document_journal>  (99) 
J. Med. Chem.

>  <bao_endpoint>  (99) 
BAO_0000190

>  <potential_duplicate>  (99) 
False

>  <uo_units>  (99) 
UO_0000065

>  <canonical_smiles>  (99) 
C[C@@H]1[C@H]2c3cc(ccc3C[C@H](N1C)c4ccc(cc24)N5CCOCC5)N6CCOCC6

>  <parent_molecule_chembl_id>  (99) 
CHEMBL3707093

>  <assay_type>  (99) 
B

>  <src_id>  (99) 
1

>  <ligand_efficiency>  (99) 
{u'le': u'0.27', u'bei': u'14.68', u'sei': u'21.86', u'lle': u'2.65'}

>  <standard_flag>  (99) 
True

>  <molecule_chembl_id>  (99) 
CHEMBL3707093

>  <target_organism>  (99) 
Homo sapiens

>  <standard_units>  (99) 
nM

>  <record_id>  (99) 
279772

>  <document_chembl_id>  (99) 
CHEMBL1145019

>  <bao_format>  (99) 
BAO_0000219

>  <data_validity_description>  (99) 
None

>  <activity_id>  (99) 
601997

>  <standard_type>  (99) 
IC50

>  <target_chembl_id>  (99) 
CHEMBL233

>  <data_validity_comment>  (99) 
None

>  <published_value>  (99) 
690

>  <document_year>  (99) 
2003

>  <target_pref_name>  (99) 
Mu opioid receptor

>  <assay_chembl_id>  (99) 
CHEMBL753178

>  <standard_relation>  (99) 
=

>  <assay_description>  (99) 
In vitro binding affinity against cloned human Opioid receptor mu 1 expressed in HEK 293S cells

>  <published_relation>  (99) 
=

>  <standard_value>  (99) 
690

>  <qudt_units>  (99) 
http://www.openphacts.org/units/Nanomolar

>  <target_tax_id>  (99) 
9606

>  <bao_label>  (99) 
cell-based format

>  <published_units>  (99) 
nM

>  <pchembl_value>  (99) 
6.16

>  <published_type>  (99) 
IC50

>  <activity_comment>  (99) 
None

$$$$

     RDKit          

 22 25  0  0  0  0  0  0  0  0999 V2000
    0.0000    0.0000    0.0000 C   0  0  0  0  0  0  0  0  0  0  0  0
    0.0000    0.0000    0.0000 C   0  0  0  0  0  0  0  0  0  0  0  0
    0.0000    0.0000    0.0000 C   0  0  0  0  0  0  0  0  0  0  0  0
    0.0000    0.0000    0.0000 C   0  0  0  0  0  0  0  0  0  0  0  0
    0.0000    0.0000    0.0000 C   0  0  0  0  0  0  0  0  0  0  0  0
    0.0000    0.0000    0.0000 C   0  0  0  0  0  0  0  0  0  0  0  0
    0.0000    0.0000    0.0000 C   0  0  0  0  0  0  0  0  0  0  0  0
    0.0000    0.0000    0.0000 C   0  0  0  0  0  0  0  0  0  0  0  0
    0.0000    0.0000    0.0000 C   0  0  0  0  0  0  0  0  0  0  0  0
    0.0000    0.0000    0.0000 C   0  0  0  0  0  0  0  0  0  0  0  0
    0.0000    0.0000    0.0000 C   0  0  0  0  0  0  0  0  0  0  0  0
    0.0000    0.0000    0.0000 C   0  0  0  0  0  0  0  0  0  0  0  0
    0.0000    0.0000    0.0000 C   0  0  0  0  0  0  0  0  0  0  0  0
    0.0000    0.0000    0.0000 C   0  0  0  0  0  0  0  0  0  0  0  0
    0.0000    0.0000    0.0000 N   0  0  0  0  0  0  0  0  0  0  0  0
    0.0000    0.0000    0.0000 C   0  0  0  0  0  0  0  0  0  0  0  0
    0.0000    0.0000    0.0000 C   0  0  0  0  0  0  0  0  0  0  0  0
    0.0000    0.0000    0.0000 C   0  0  0  0  0  0  0  0  0  0  0  0
    0.0000    0.0000    0.0000 C   0  0  0  0  0  0  0  0  0  0  0  0
    0.0000    0.0000    0.0000 C   0  0  0  0  0  0  0  0  0  0  0  0
    0.0000    0.0000    0.0000 C   0  0  0  0  0  0  0  0  0  0  0  0
    0.0000    0.0000    0.0000 C   0  0  0  0  0  0  0  0  0  0  0  0
  1  2  1  0
  2  3  1  0
  2  4  1  0
  4  5  1  0
  5  6  1  0
  6  7  1  0
  7  8  2  0
  8  9  1  0
  9 10  2  0
 10 11  1  0
 11 12  2  0
 12 13  1  0
 13 14  1  0
 14 15  1  0
 15 16  1  0
 14 17  1  0
 17 18  2  0
 18 19  1  0
 19 20  2  0
 20 21  1  0
 21 22  2  0
 15  5  1  0
 22  6  1  0
 12  7  1  0
 22 17  1  0
M  END
>  <pIC50>  (100) 
6.0

>  <ChEMBL_ID>  (100) 
CHEMBL2112842

>  <document_journal>  (100) 
J. Med. Chem.

>  <bao_endpoint>  (100) 
BAO_0000190

>  <potential_duplicate>  (100) 
False

>  <uo_units>  (100) 
UO_0000065

>  <canonical_smiles>  (100) 
CC(C)C[C@H]1[C@H]2c3ccccc3C[C@@H](N1C)c4ccccc24

>  <parent_molecule_chembl_id>  (100) 
CHEMBL2112842

>  <assay_type>  (100) 
B

>  <src_id>  (100) 
1

>  <ligand_efficiency>  (100) 
{u'le': u'0.37', u'bei': u'20.57', u'sei': u'185.05', u'lle': u'0.96'}

>  <standard_flag>  (100) 
True

>  <molecule_chembl_id>  (100) 
CHEMBL2112842

>  <target_organism>  (100) 
Homo sapiens

>  <standard_units>  (100) 
nM

>  <record_id>  (100) 
279787

>  <document_chembl_id>  (100) 
CHEMBL1145019

>  <bao_format>  (100) 
BAO_0000219

>  <data_validity_description>  (100) 
None

>  <activity_id>  (100) 
602001

>  <standard_type>  (100) 
IC50

>  <target_chembl_id>  (100) 
CHEMBL233

>  <data_validity_comment>  (100) 
None

>  <published_value>  (100) 
1010

>  <document_year>  (100) 
2003

>  <target_pref_name>  (100) 
Mu opioid receptor

>  <assay_chembl_id>  (100) 
CHEMBL753178

>  <standard_relation>  (100) 
=

>  <assay_description>  (100) 
In vitro binding affinity against cloned human Opioid receptor mu 1 expressed in HEK 293S cells

>  <published_relation>  (100) 
=

>  <standard_value>  (100) 
1010

>  <qudt_units>  (100) 
http://www.openphacts.org/units/Nanomolar

>  <target_tax_id>  (100) 
9606

>  <bao_label>  (100) 
cell-based format

>  <published_units>  (100) 
nM

>  <pchembl_value>  (100) 
6

>  <published_type>  (100) 
IC50

>  <activity_comment>  (100) 
None

$$$$

     RDKit          

 22 26  0  0  0  0  0  0  0  0999 V2000
    0.0000    0.0000    0.0000 C   0  0  0  0  0  0  0  0  0  0  0  0
    0.0000    0.0000    0.0000 C   0  0  0  0  0  0  0  0  0  0  0  0
    0.0000    0.0000    0.0000 C   0  0  0  0  0  0  0  0  0  0  0  0
    0.0000    0.0000    0.0000 C   0  0  0  0  0  0  0  0  0  0  0  0
    0.0000    0.0000    0.0000 C   0  0  0  0  0  0  0  0  0  0  0  0
    0.0000    0.0000    0.0000 C   0  0  0  0  0  0  0  0  0  0  0  0
    0.0000    0.0000    0.0000 C   0  0  0  0  0  0  0  0  0  0  0  0
    0.0000    0.0000    0.0000 C   0  0  0  0  0  0  0  0  0  0  0  0
    0.0000    0.0000    0.0000 C   0  0  0  0  0  0  0  0  0  0  0  0
    0.0000    0.0000    0.0000 C   0  0  0  0  0  0  0  0  0  0  0  0
    0.0000    0.0000    0.0000 C   0  0  0  0  0  0  0  0  0  0  0  0
    0.0000    0.0000    0.0000 N   0  0  0  0  0  0  0  0  0  0  0  0
    0.0000    0.0000    0.0000 C   0  0  0  0  0  0  0  0  0  0  0  0
    0.0000    0.0000    0.0000 C   0  0  0  0  0  0  0  0  0  0  0  0
    0.0000    0.0000    0.0000 C   0  0  0  0  0  0  0  0  0  0  0  0
    0.0000    0.0000    0.0000 C   0  0  0  0  0  0  0  0  0  0  0  0
    0.0000    0.0000    0.0000 C   0  0  0  0  0  0  0  0  0  0  0  0
    0.0000    0.0000    0.0000 C   0  0  0  0  0  0  0  0  0  0  0  0
    0.0000    0.0000    0.0000 C   0  0  0  0  0  0  0  0  0  0  0  0
    0.0000    0.0000    0.0000 C   0  0  0  0  0  0  0  0  0  0  0  0
    0.0000    0.0000    0.0000 C   0  0  0  0  0  0  0  0  0  0  0  0
    0.0000    0.0000    0.0000 C   0  0  0  0  0  0  0  0  0  0  0  0
  1  2  1  0
  2  3  1  0
  3  4  1  0
  4  5  2  0
  5  6  1  0
  6  7  2  0
  7  8  1  0
  8  9  2  0
  9 10  1  0
 10 11  1  0
 11 12  1  0
 12 13  1  0
 13 14  1  0
 14 15  1  0
 15 16  1  0
 11 17  1  0
 17 18  2  0
 18 19  1  0
 19 20  2  0
 20 21  1  0
 21 22  2  0
 12  2  1  0
 22  3  1  0
  9  4  1  0
 16 14  1  0
 22 17  1  0
M  END
>  <pIC50>  (101) 
5.97

>  <ChEMBL_ID>  (101) 
CHEMBL3707098

>  <document_journal>  (101) 
J. Med. Chem.

>  <bao_endpoint>  (101) 
BAO_0000190

>  <potential_duplicate>  (101) 
False

>  <uo_units>  (101) 
UO_0000065

>  <canonical_smiles>  (101) 
C[C@@H]1[C@H]2c3ccccc3C[C@H](N1CC4CC4)c5ccccc25

>  <parent_molecule_chembl_id>  (101) 
CHEMBL3707098

>  <assay_type>  (101) 
B

>  <src_id>  (101) 
1

>  <ligand_efficiency>  (101) 
{u'le': u'0.37', u'bei': u'20.62', u'sei': u'184.15', u'lle': u'1.34'}

>  <standard_flag>  (101) 
True

>  <molecule_chembl_id>  (101) 
CHEMBL3707098

>  <target_organism>  (101) 
Homo sapiens

>  <standard_units>  (101) 
nM

>  <record_id>  (101) 
279758

>  <document_chembl_id>  (101) 
CHEMBL1145019

>  <bao_format>  (101) 
BAO_0000219

>  <data_validity_description>  (101) 
None

>  <activity_id>  (101) 
603247

>  <standard_type>  (101) 
IC50

>  <target_chembl_id>  (101) 
CHEMBL233

>  <data_validity_comment>  (101) 
None

>  <published_value>  (101) 
1080

>  <document_year>  (101) 
2003

>  <target_pref_name>  (101) 
Mu opioid receptor

>  <assay_chembl_id>  (101) 
CHEMBL753178

>  <standard_relation>  (101) 
=

>  <assay_description>  (101) 
In vitro binding affinity against cloned human Opioid receptor mu 1 expressed in HEK 293S cells

>  <published_relation>  (101) 
=

>  <standard_value>  (101) 
1080

>  <qudt_units>  (101) 
http://www.openphacts.org/units/Nanomolar

>  <target_tax_id>  (101) 
9606

>  <bao_label>  (101) 
cell-based format

>  <published_units>  (101) 
nM

>  <pchembl_value>  (101) 
5.97

>  <published_type>  (101) 
IC50

>  <activity_comment>  (101) 
None

$$$$

     RDKit          

 27 30  0  0  0  0  0  0  0  0999 V2000
    0.0000    0.0000    0.0000 C   0  0  0  0  0  0  0  0  0  0  0  0
    0.0000    0.0000    0.0000 C   0  0  0  0  0  0  0  0  0  0  0  0
    0.0000    0.0000    0.0000 C   0  0  0  0  0  0  0  0  0  0  0  0
    0.0000    0.0000    0.0000 C   0  0  0  0  0  0  0  0  0  0  0  0
    0.0000    0.0000    0.0000 C   0  0  0  0  0  0  0  0  0  0  0  0
    0.0000    0.0000    0.0000 C   0  0  0  0  0  0  0  0  0  0  0  0
    0.0000    0.0000    0.0000 O   0  0  0  0  0  0  0  0  0  0  0  0
    0.0000    0.0000    0.0000 C   0  0  0  0  0  0  0  0  0  0  0  0
    0.0000    0.0000    0.0000 O   0  0  0  0  0  0  0  0  0  0  0  0
    0.0000    0.0000    0.0000 C   0  0  0  0  0  0  0  0  0  0  0  0
    0.0000    0.0000    0.0000 C   0  0  0  0  0  0  0  0  0  0  0  0
    0.0000    0.0000    0.0000 C   0  0  0  0  0  0  0  0  0  0  0  0
    0.0000    0.0000    0.0000 C   0  0  0  0  0  0  0  0  0  0  0  0
    0.0000    0.0000    0.0000 C   0  0  0  0  0  0  0  0  0  0  0  0
    0.0000    0.0000    0.0000 C   0  0  0  0  0  0  0  0  0  0  0  0
    0.0000    0.0000    0.0000 N   0  0  0  0  0  0  0  0  0  0  0  0
    0.0000    0.0000    0.0000 C   0  0  0  0  0  0  0  0  0  0  0  0
    0.0000    0.0000    0.0000 C   0  0  0  0  0  0  0  0  0  0  0  0
    0.0000    0.0000    0.0000 C   0  0  0  0  0  0  0  0  0  0  0  0
    0.0000    0.0000    0.0000 C   0  0  0  0  0  0  0  0  0  0  0  0
    0.0000    0.0000    0.0000 C   0  0  0  0  0  0  0  0  0  0  0  0
    0.0000    0.0000    0.0000 O   0  0  0  0  0  0  0  0  0  0  0  0
    0.0000    0.0000    0.0000 C   0  0  0  0  0  0  0  0  0  0  0  0
    0.0000    0.0000    0.0000 O   0  0  0  0  0  0  0  0  0  0  0  0
    0.0000    0.0000    0.0000 C   0  0  0  0  0  0  0  0  0  0  0  0
    0.0000    0.0000    0.0000 C   0  0  0  0  0  0  0  0  0  0  0  0
    0.0000    0.0000    0.0000 C   0  0  0  0  0  0  0  0  0  0  0  0
  1  2  1  0
  2  3  1  0
  3  4  1  0
  4  5  2  0
  5  6  1  0
  6  7  1  0
  7  8  1  0
  8  9  2  0
  8 10  1  0
  6 11  2  0
 11 12  1  0
 12 13  2  0
 13 14  1  0
 14 15  1  0
 15 16  1  0
 16 17  1  0
 15 18  1  0
 18 19  2  0
 19 20  1  0
 20 21  2  0
 21 22  1  0
 22 23  1  0
 23 24  2  0
 23 25  1  0
 21 26  1  0
 26 27  2  0
 16  2  1  0
 27  3  1  0
 13  4  1  0
 27 18  1  0
M  END
>  <pIC50>  (102) 
6.7

>  <ChEMBL_ID>  (102) 
CHEMBL3707081

>  <document_journal>  (102) 
J. Med. Chem.

>  <bao_endpoint>  (102) 
BAO_0000190

>  <potential_duplicate>  (102) 
False

>  <uo_units>  (102) 
UO_0000065

>  <canonical_smiles>  (102) 
C[C@@H]1[C@H]2c3cc(OC(=O)C)ccc3C[C@H](N1C)c4ccc(OC(=O)C)cc24

>  <parent_molecule_chembl_id>  (102) 
CHEMBL3707081

>  <assay_type>  (102) 
B

>  <src_id>  (102) 
1

>  <ligand_efficiency>  (102) 
{u'le': u'0.34', u'bei': u'18.33', u'sei': u'12', u'lle': u'3.35'}

>  <standard_flag>  (102) 
True

>  <molecule_chembl_id>  (102) 
CHEMBL3707081

>  <target_organism>  (102) 
Homo sapiens

>  <standard_units>  (102) 
nM

>  <record_id>  (102) 
279762

>  <document_chembl_id>  (102) 
CHEMBL1145019

>  <bao_format>  (102) 
BAO_0000219

>  <data_validity_description>  (102) 
None

>  <activity_id>  (102) 
605805

>  <standard_type>  (102) 
IC50

>  <target_chembl_id>  (102) 
CHEMBL233

>  <data_validity_comment>  (102) 
None

>  <published_value>  (102) 
200

>  <document_year>  (102) 
2003

>  <target_pref_name>  (102) 
Mu opioid receptor

>  <assay_chembl_id>  (102) 
CHEMBL753178

>  <standard_relation>  (102) 
=

>  <assay_description>  (102) 
In vitro binding affinity against cloned human Opioid receptor mu 1 expressed in HEK 293S cells

>  <published_relation>  (102) 
=

>  <standard_value>  (102) 
200

>  <qudt_units>  (102) 
http://www.openphacts.org/units/Nanomolar

>  <target_tax_id>  (102) 
9606

>  <bao_label>  (102) 
cell-based format

>  <published_units>  (102) 
nM

>  <pchembl_value>  (102) 
6.7

>  <published_type>  (102) 
IC50

>  <activity_comment>  (102) 
None

$$$$

     RDKit          

 20 23  0  0  0  0  0  0  0  0999 V2000
    0.0000    0.0000    0.0000 C   0  0  0  0  0  0  0  0  0  0  0  0
    0.0000    0.0000    0.0000 C   0  0  0  0  0  0  0  0  0  0  0  0
    0.0000    0.0000    0.0000 C   0  0  0  0  0  0  0  0  0  0  0  0
    0.0000    0.0000    0.0000 C   0  0  0  0  0  0  0  0  0  0  0  0
    0.0000    0.0000    0.0000 C   0  0  0  0  0  0  0  0  0  0  0  0
    0.0000    0.0000    0.0000 C   0  0  0  0  0  0  0  0  0  0  0  0
    0.0000    0.0000    0.0000 C   0  0  0  0  0  0  0  0  0  0  0  0
    0.0000    0.0000    0.0000 C   0  0  0  0  0  0  0  0  0  0  0  0
    0.0000    0.0000    0.0000 C   0  0  0  0  0  0  0  0  0  0  0  0
    0.0000    0.0000    0.0000 C   0  0  0  0  0  0  0  0  0  0  0  0
    0.0000    0.0000    0.0000 C   0  0  0  0  0  0  0  0  0  0  0  0
    0.0000    0.0000    0.0000 N   0  0  0  0  0  0  0  0  0  0  0  0
    0.0000    0.0000    0.0000 C   0  0  0  0  0  0  0  0  0  0  0  0
    0.0000    0.0000    0.0000 O   0  0  0  0  0  0  0  0  0  0  0  0
    0.0000    0.0000    0.0000 C   0  0  0  0  0  0  0  0  0  0  0  0
    0.0000    0.0000    0.0000 C   0  0  0  0  0  0  0  0  0  0  0  0
    0.0000    0.0000    0.0000 C   0  0  0  0  0  0  0  0  0  0  0  0
    0.0000    0.0000    0.0000 C   0  0  0  0  0  0  0  0  0  0  0  0
    0.0000    0.0000    0.0000 C   0  0  0  0  0  0  0  0  0  0  0  0
    0.0000    0.0000    0.0000 C   0  0  0  0  0  0  0  0  0  0  0  0
  1  2  1  0
  2  3  1  0
  3  4  1  0
  4  5  2  0
  5  6  1  0
  6  7  2  0
  7  8  1  0
  8  9  2  0
  9 10  1  0
 10 11  1  0
 11 12  1  0
 12 13  1  0
 13 14  1  0
 11 15  1  0
 15 16  2  0
 16 17  1  0
 17 18  2  0
 18 19  1  0
 19 20  2  0
 12  2  1  0
 20  3  1  0
  9  4  1  0
 20 15  1  0
M  END
>  <pIC50>  (103) 
6.39

>  <ChEMBL_ID>  (103) 
CHEMBL3706645

>  <document_journal>  (103) 
J. Med. Chem.

>  <bao_endpoint>  (103) 
BAO_0000190

>  <potential_duplicate>  (103) 
False

>  <uo_units>  (103) 
UO_0000065

>  <canonical_smiles>  (103) 
C[C@H]1[C@@H]2c3ccccc3C[C@@H](N1CO)c4ccccc24

>  <parent_molecule_chembl_id>  (103) 
CHEMBL3706645

>  <assay_type>  (103) 
B

>  <src_id>  (103) 
1

>  <ligand_efficiency>  (103) 
{u'le': u'0.44', u'bei': u'24.1', u'sei': u'27.24', u'lle': u'3.14'}

>  <standard_flag>  (103) 
True

>  <molecule_chembl_id>  (103) 
CHEMBL3706645

>  <target_organism>  (103) 
Homo sapiens

>  <standard_units>  (103) 
nM

>  <record_id>  (103) 
279785

>  <document_chembl_id>  (103) 
CHEMBL1145019

>  <bao_format>  (103) 
BAO_0000219

>  <data_validity_description>  (103) 
None

>  <activity_id>  (103) 
606963

>  <standard_type>  (103) 
IC50

>  <target_chembl_id>  (103) 
CHEMBL233

>  <data_validity_comment>  (103) 
None

>  <published_value>  (103) 
404

>  <document_year>  (103) 
2003

>  <target_pref_name>  (103) 
Mu opioid receptor

>  <assay_chembl_id>  (103) 
CHEMBL753178

>  <standard_relation>  (103) 
=

>  <assay_description>  (103) 
In vitro binding affinity against cloned human Opioid receptor mu 1 expressed in HEK 293S cells

>  <published_relation>  (103) 
=

>  <standard_value>  (103) 
404

>  <qudt_units>  (103) 
http://www.openphacts.org/units/Nanomolar

>  <target_tax_id>  (103) 
9606

>  <bao_label>  (103) 
cell-based format

>  <published_units>  (103) 
nM

>  <pchembl_value>  (103) 
6.39

>  <published_type>  (103) 
IC50

>  <activity_comment>  (103) 
None

$$$$

     RDKit          

 36 42  0  0  0  0  0  0  0  0999 V2000
    0.0000    0.0000    0.0000 C   0  0  0  0  0  0  0  0  0  0  0  0
    0.0000    0.0000    0.0000 C   0  0  0  0  0  0  0  0  0  0  0  0
    0.0000    0.0000    0.0000 C   0  0  0  0  0  0  0  0  0  0  0  0
    0.0000    0.0000    0.0000 C   0  0  0  0  0  0  0  0  0  0  0  0
    0.0000    0.0000    0.0000 C   0  0  0  0  0  0  0  0  0  0  0  0
    0.0000    0.0000    0.0000 C   0  0  0  0  0  0  0  0  0  0  0  0
    0.0000    0.0000    0.0000 C   0  0  0  0  0  0  0  0  0  0  0  0
    0.0000    0.0000    0.0000 C   0  0  0  0  0  0  0  0  0  0  0  0
    0.0000    0.0000    0.0000 C   0  0  0  0  0  0  0  0  0  0  0  0
    0.0000    0.0000    0.0000 C   0  0  0  0  0  0  0  0  0  0  0  0
    0.0000    0.0000    0.0000 C   0  0  0  0  0  0  0  0  0  0  0  0
    0.0000    0.0000    0.0000 N   0  0  0  0  0  0  0  0  0  0  0  0
    0.0000    0.0000    0.0000 C   0  0  0  0  0  0  0  0  0  0  0  0
    0.0000    0.0000    0.0000 C   0  0  0  0  0  0  0  0  0  0  0  0
    0.0000    0.0000    0.0000 C   0  0  0  0  0  0  0  0  0  0  0  0
    0.0000    0.0000    0.0000 C   0  0  0  0  0  0  0  0  0  0  0  0
    0.0000    0.0000    0.0000 C   0  0  0  0  0  0  0  0  0  0  0  0
    0.0000    0.0000    0.0000 C   0  0  0  0  0  0  0  0  0  0  0  0
    0.0000    0.0000    0.0000 C   0  0  0  0  0  0  0  0  0  0  0  0
    0.0000    0.0000    0.0000 C   0  0  0  0  0  0  0  0  0  0  0  0
    0.0000    0.0000    0.0000 C   0  0  0  0  0  0  0  0  0  0  0  0
    0.0000    0.0000    0.0000 C   0  0  0  0  0  0  0  0  0  0  0  0
    0.0000    0.0000    0.0000 N   0  0  0  0  0  0  0  0  0  0  0  0
    0.0000    0.0000    0.0000 C   0  0  0  0  0  0  0  0  0  0  0  0
    0.0000    0.0000    0.0000 C   0  0  0  0  0  0  0  0  0  0  0  0
    0.0000    0.0000    0.0000 N   0  0  0  0  0  0  0  0  0  0  0  0
    0.0000    0.0000    0.0000 C   0  0  0  0  0  0  0  0  0  0  0  0
    0.0000    0.0000    0.0000 C   0  0  0  0  0  0  0  0  0  0  0  0
    0.0000    0.0000    0.0000 C   0  0  0  0  0  0  0  0  0  0  0  0
    0.0000    0.0000    0.0000 N   0  0  0  0  0  0  0  0  0  0  0  0
    0.0000    0.0000    0.0000 C   0  0  0  0  0  0  0  0  0  0  0  0
    0.0000    0.0000    0.0000 C   0  0  0  0  0  0  0  0  0  0  0  0
    0.0000    0.0000    0.0000 N   0  0  0  0  0  0  0  0  0  0  0  0
    0.0000    0.0000    0.0000 C   0  0  0  0  0  0  0  0  0  0  0  0
    0.0000    0.0000    0.0000 C   0  0  0  0  0  0  0  0  0  0  0  0
    0.0000    0.0000    0.0000 C   0  0  0  0  0  0  0  0  0  0  0  0
  1  2  1  0
  2  3  1  0
  3  4  1  0
  4  5  2  0
  5  6  1  0
  6  7  2  0
  7  8  1  0
  8  9  2  0
  9 10  1  0
 10 11  1  0
 11 12  1  0
 12 13  1  0
 13 14  1  0
 14 15  1  0
 15 16  1  0
 11 17  1  0
 17 18  2  0
 18 19  1  0
 19 20  2  0
 20 21  1  0
 21 22  2  0
 20 23  1  0
 23 24  1  0
 24 25  1  0
 25 26  1  0
 26 27  1  0
 26 28  1  0
 28 29  1  0
  6 30  1  0
 30 31  1  0
 31 32  1  0
 32 33  1  0
 33 34  1  0
 33 35  1  0
 35 36  1  0
 12  2  1  0
 22  3  1  0
  9  4  1  0
 16 14  1  0
 22 17  1  0
 29 23  1  0
 36 30  1  0
M  END
>  <pIC50>  (104) 
6.16

>  <ChEMBL_ID>  (104) 
CHEMBL3707088

>  <document_journal>  (104) 
J. Med. Chem.

>  <bao_endpoint>  (104) 
BAO_0000190

>  <potential_duplicate>  (104) 
False

>  <uo_units>  (104) 
UO_0000065

>  <canonical_smiles>  (104) 
C[C@@H]1[C@H]2c3cc(ccc3C[C@H](N1CC4CC4)c5ccc(cc25)N6CCN(C)CC6)N7CCN(C)CC7

>  <parent_molecule_chembl_id>  (104) 
CHEMBL3707088

>  <assay_type>  (104) 
B

>  <src_id>  (104) 
1

>  <ligand_efficiency>  (104) 
{u'le': u'0.23', u'bei': u'12.68', u'sei': u'38.03', u'lle': u'1.29'}

>  <standard_flag>  (104) 
True

>  <molecule_chembl_id>  (104) 
CHEMBL3707088

>  <target_organism>  (104) 
Homo sapiens

>  <standard_units>  (104) 
nM

>  <record_id>  (104) 
279773

>  <document_chembl_id>  (104) 
CHEMBL1145019

>  <bao_format>  (104) 
BAO_0000219

>  <data_validity_description>  (104) 
None

>  <activity_id>  (104) 
609385

>  <standard_type>  (104) 
IC50

>  <target_chembl_id>  (104) 
CHEMBL233

>  <data_validity_comment>  (104) 
None

>  <published_value>  (104) 
690

>  <document_year>  (104) 
2003

>  <target_pref_name>  (104) 
Mu opioid receptor

>  <assay_chembl_id>  (104) 
CHEMBL753178

>  <standard_relation>  (104) 
=

>  <assay_description>  (104) 
In vitro binding affinity against cloned human Opioid receptor mu 1 expressed in HEK 293S cells

>  <published_relation>  (104) 
=

>  <standard_value>  (104) 
690

>  <qudt_units>  (104) 
http://www.openphacts.org/units/Nanomolar

>  <target_tax_id>  (104) 
9606

>  <bao_label>  (104) 
cell-based format

>  <published_units>  (104) 
nM

>  <pchembl_value>  (104) 
6.16

>  <published_type>  (104) 
IC50

>  <activity_comment>  (104) 
None

$$$$

     RDKit          

 28 32  0  0  0  0  0  0  0  0999 V2000
    0.0000    0.0000    0.0000 C   0  0  0  0  0  0  0  0  0  0  0  0
    0.0000    0.0000    0.0000 C   0  0  0  0  0  0  0  0  0  0  0  0
    0.0000    0.0000    0.0000 O   0  0  0  0  0  0  0  0  0  0  0  0
    0.0000    0.0000    0.0000 O   0  0  0  0  0  0  0  0  0  0  0  0
    0.0000    0.0000    0.0000 C   0  0  0  0  0  0  0  0  0  0  0  0
    0.0000    0.0000    0.0000 C   0  0  0  0  0  0  0  0  0  0  0  0
    0.0000    0.0000    0.0000 C   0  0  0  0  0  0  0  0  0  0  0  0
    0.0000    0.0000    0.0000 C   0  0  0  0  0  0  0  0  0  0  0  0
    0.0000    0.0000    0.0000 C   0  0  0  0  0  0  0  0  0  0  0  0
    0.0000    0.0000    0.0000 C   0  0  0  0  0  0  0  0  0  0  0  0
    0.0000    0.0000    0.0000 N   0  0  0  0  0  0  0  0  0  0  0  0
    0.0000    0.0000    0.0000 C   0  0  0  0  0  0  0  0  0  0  0  0
    0.0000    0.0000    0.0000 C   0  0  0  0  0  0  0  0  0  0  0  0
    0.0000    0.0000    0.0000 C   0  0  0  0  0  0  0  0  0  0  0  0
    0.0000    0.0000    0.0000 C   0  0  0  0  0  0  0  0  0  0  0  0
    0.0000    0.0000    0.0000 C   0  0  0  0  0  0  0  0  0  0  0  0
    0.0000    0.0000    0.0000 C   0  0  0  0  0  0  0  0  0  0  0  0
    0.0000    0.0000    0.0000 C   0  0  0  0  0  0  0  0  0  0  0  0
    0.0000    0.0000    0.0000 C   0  0  0  0  0  0  0  0  0  0  0  0
    0.0000    0.0000    0.0000 C   0  0  0  0  0  0  0  0  0  0  0  0
    0.0000    0.0000    0.0000 C   0  0  0  0  0  0  0  0  0  0  0  0
    0.0000    0.0000    0.0000 O   0  0  0  0  0  0  0  0  0  0  0  0
    0.0000    0.0000    0.0000 C   0  0  0  0  0  0  0  0  0  0  0  0
    0.0000    0.0000    0.0000 O   0  0  0  0  0  0  0  0  0  0  0  0
    0.0000    0.0000    0.0000 C   0  0  0  0  0  0  0  0  0  0  0  0
    0.0000    0.0000    0.0000 C   0  0  0  0  0  0  0  0  0  0  0  0
    0.0000    0.0000    0.0000 C   0  0  0  0  0  0  0  0  0  0  0  0
    0.0000    0.0000    0.0000 C   0  0  0  0  0  0  0  0  0  0  0  0
  1  2  1  0
  2  3  2  0
  2  4  1  0
  4  5  1  0
  5  6  2  0
  6  7  1  0
  7  8  2  0
  8  9  1  0
  9 10  1  0
 10 11  1  0
 11 12  1  0
 12 13  1  0
 13 14  1  0
 14 15  1  0
 15 16  1  0
 16 17  1  0
 17 18  2  0
 16 19  1  0
 19 20  2  0
 20 21  1  0
 21 22  1  0
 22 23  1  0
 23 24  2  0
 23 25  1  0
 21 26  2  0
 26 27  1  0
 27 28  2  0
 18  5  1  0
 17  8  1  0
 28 10  1  0
 15 11  1  0
 28 19  1  0
M  END
>  <pIC50>  (105) 
6.66

>  <ChEMBL_ID>  (105) 
CHEMBL3707077

>  <document_journal>  (105) 
J. Med. Chem.

>  <bao_endpoint>  (105) 
BAO_0000190

>  <potential_duplicate>  (105) 
False

>  <uo_units>  (105) 
UO_0000065

>  <canonical_smiles>  (105) 
CC(=O)Oc1ccc2C[C@@H]3N4CCC[C@H]4[C@@H](c2c1)c5cc(OC(=O)C)ccc35

>  <parent_molecule_chembl_id>  (105) 
CHEMBL3707077

>  <assay_type>  (105) 
B

>  <src_id>  (105) 
1

>  <ligand_efficiency>  (105) 
{u'le': u'0.32', u'bei': u'17.64', u'sei': u'11.92', u'lle': u'3.2'}

>  <standard_flag>  (105) 
True

>  <molecule_chembl_id>  (105) 
CHEMBL3707077

>  <target_organism>  (105) 
Homo sapiens

>  <standard_units>  (105) 
nM

>  <record_id>  (105) 
279791

>  <document_chembl_id>  (105) 
CHEMBL1145019

>  <bao_format>  (105) 
BAO_0000219

>  <data_validity_description>  (105) 
None

>  <activity_id>  (105) 
609389

>  <standard_type>  (105) 
IC50

>  <target_chembl_id>  (105) 
CHEMBL233

>  <data_validity_comment>  (105) 
None

>  <published_value>  (105) 
220

>  <document_year>  (105) 
2003

>  <target_pref_name>  (105) 
Mu opioid receptor

>  <assay_chembl_id>  (105) 
CHEMBL753178

>  <standard_relation>  (105) 
=

>  <assay_description>  (105) 
In vitro binding affinity against cloned human Opioid receptor mu 1 expressed in HEK 293S cells

>  <published_relation>  (105) 
=

>  <standard_value>  (105) 
220

>  <qudt_units>  (105) 
http://www.openphacts.org/units/Nanomolar

>  <target_tax_id>  (105) 
9606

>  <bao_label>  (105) 
cell-based format

>  <published_units>  (105) 
nM

>  <pchembl_value>  (105) 
6.66

>  <published_type>  (105) 
IC50

>  <activity_comment>  (105) 
None

$$$$

     RDKit          

 24 28  0  0  0  0  0  0  0  0999 V2000
    0.0000    0.0000    0.0000 C   0  0  0  0  0  0  0  0  0  0  0  0
    0.0000    0.0000    0.0000 O   0  0  0  0  0  0  0  0  0  0  0  0
    0.0000    0.0000    0.0000 C   0  0  0  0  0  0  0  0  0  0  0  0
    0.0000    0.0000    0.0000 C   0  0  0  0  0  0  0  0  0  0  0  0
    0.0000    0.0000    0.0000 C   0  0  0  0  0  0  0  0  0  0  0  0
    0.0000    0.0000    0.0000 C   0  0  0  0  0  0  0  0  0  0  0  0
    0.0000    0.0000    0.0000 C   0  0  0  0  0  0  0  0  0  0  0  0
    0.0000    0.0000    0.0000 C   0  0  0  0  0  0  0  0  0  0  0  0
    0.0000    0.0000    0.0000 N   0  0  0  0  0  0  0  0  0  0  0  0
    0.0000    0.0000    0.0000 C   0  0  0  0  0  0  0  0  0  0  0  0
    0.0000    0.0000    0.0000 C   0  0  0  0  0  0  0  0  0  0  0  0
    0.0000    0.0000    0.0000 C   0  0  0  0  0  0  0  0  0  0  0  0
    0.0000    0.0000    0.0000 C   0  0  0  0  0  0  0  0  0  0  0  0
    0.0000    0.0000    0.0000 C   0  0  0  0  0  0  0  0  0  0  0  0
    0.0000    0.0000    0.0000 C   0  0  0  0  0  0  0  0  0  0  0  0
    0.0000    0.0000    0.0000 C   0  0  0  0  0  0  0  0  0  0  0  0
    0.0000    0.0000    0.0000 C   0  0  0  0  0  0  0  0  0  0  0  0
    0.0000    0.0000    0.0000 C   0  0  0  0  0  0  0  0  0  0  0  0
    0.0000    0.0000    0.0000 C   0  0  0  0  0  0  0  0  0  0  0  0
    0.0000    0.0000    0.0000 O   0  0  0  0  0  0  0  0  0  0  0  0
    0.0000    0.0000    0.0000 C   0  0  0  0  0  0  0  0  0  0  0  0
    0.0000    0.0000    0.0000 C   0  0  0  0  0  0  0  0  0  0  0  0
    0.0000    0.0000    0.0000 C   0  0  0  0  0  0  0  0  0  0  0  0
    0.0000    0.0000    0.0000 C   0  0  0  0  0  0  0  0  0  0  0  0
  1  2  1  0
  2  3  1  0
  3  4  2  0
  4  5  1  0
  5  6  2  0
  6  7  1  0
  7  8  1  0
  8  9  1  0
  9 10  1  0
 10 11  1  0
 11 12  1  0
 12 13  1  0
 13 14  1  0
 14 15  1  0
 15 16  2  0
 14 17  1  0
 17 18  2  0
 18 19  1  0
 19 20  1  0
 20 21  1  0
 19 22  2  0
 22 23  1  0
 23 24  2  0
 16  3  1  0
 15  6  1  0
 24  8  1  0
 13  9  1  0
 24 17  1  0
M  END
>  <pIC50>  (106) 
6.8

>  <ChEMBL_ID>  (106) 
CHEMBL3707096

>  <document_journal>  (106) 
J. Med. Chem.

>  <bao_endpoint>  (106) 
BAO_0000190

>  <potential_duplicate>  (106) 
False

>  <uo_units>  (106) 
UO_0000065

>  <canonical_smiles>  (106) 
COc1ccc2C[C@@H]3N4CCC[C@H]4[C@@H](c2c1)c5cc(OC)ccc35

>  <parent_molecule_chembl_id>  (106) 
CHEMBL3707096

>  <assay_type>  (106) 
B

>  <src_id>  (106) 
1

>  <ligand_efficiency>  (106) 
{u'le': u'0.39', u'bei': u'21.14', u'sei': u'31.32', u'lle': u'2.91'}

>  <standard_flag>  (106) 
True

>  <molecule_chembl_id>  (106) 
CHEMBL3707096

>  <target_organism>  (106) 
Homo sapiens

>  <standard_units>  (106) 
nM

>  <record_id>  (106) 
279779

>  <document_chembl_id>  (106) 
CHEMBL1145019

>  <bao_format>  (106) 
BAO_0000219

>  <data_validity_description>  (106) 
None

>  <activity_id>  (106) 
609393

>  <standard_type>  (106) 
IC50

>  <target_chembl_id>  (106) 
CHEMBL233

>  <data_validity_comment>  (106) 
None

>  <published_value>  (106) 
160

>  <document_year>  (106) 
2003

>  <target_pref_name>  (106) 
Mu opioid receptor

>  <assay_chembl_id>  (106) 
CHEMBL753178

>  <standard_relation>  (106) 
=

>  <assay_description>  (106) 
In vitro binding affinity against cloned human Opioid receptor mu 1 expressed in HEK 293S cells

>  <published_relation>  (106) 
=

>  <standard_value>  (106) 
160

>  <qudt_units>  (106) 
http://www.openphacts.org/units/Nanomolar

>  <target_tax_id>  (106) 
9606

>  <bao_label>  (106) 
cell-based format

>  <published_units>  (106) 
nM

>  <pchembl_value>  (106) 
6.8

>  <published_type>  (106) 
IC50

>  <activity_comment>  (106) 
None

$$$$

     RDKit          

 22 25  0  0  0  0  0  0  0  0999 V2000
    0.0000    0.0000    0.0000 C   0  0  0  0  0  0  0  0  0  0  0  0
    0.0000    0.0000    0.0000 N   0  0  0  0  0  0  0  0  0  0  0  0
    0.0000    0.0000    0.0000 C   0  0  0  0  0  0  0  0  0  0  0  0
    0.0000    0.0000    0.0000 C   0  0  0  0  0  0  0  0  0  0  0  0
    0.0000    0.0000    0.0000 C   0  0  0  0  0  0  0  0  0  0  0  0
    0.0000    0.0000    0.0000 C   0  0  0  0  0  0  0  0  0  0  0  0
    0.0000    0.0000    0.0000 O   0  0  0  0  0  0  0  0  0  0  0  0
    0.0000    0.0000    0.0000 C   0  0  0  0  0  0  0  0  0  0  0  0
    0.0000    0.0000    0.0000 C   0  0  0  0  0  0  0  0  0  0  0  0
    0.0000    0.0000    0.0000 C   0  0  0  0  0  0  0  0  0  0  0  0
    0.0000    0.0000    0.0000 C   0  0  0  0  0  0  0  0  0  0  0  0
    0.0000    0.0000    0.0000 C   0  0  0  0  0  0  0  0  0  0  0  0
    0.0000    0.0000    0.0000 C   0  0  0  0  0  0  0  0  0  0  0  0
    0.0000    0.0000    0.0000 C   0  0  0  0  0  0  0  0  0  0  0  0
    0.0000    0.0000    0.0000 C   0  0  0  0  0  0  0  0  0  0  0  0
    0.0000    0.0000    0.0000 C   0  0  0  0  0  0  0  0  0  0  0  0
    0.0000    0.0000    0.0000 C   0  0  0  0  0  0  0  0  0  0  0  0
    0.0000    0.0000    0.0000 C   0  0  0  0  0  0  0  0  0  0  0  0
    0.0000    0.0000    0.0000 C   0  0  0  0  0  0  0  0  0  0  0  0
    0.0000    0.0000    0.0000 C   0  0  0  0  0  0  0  0  0  0  0  0
    0.0000    0.0000    0.0000 C   0  0  0  0  0  0  0  0  0  0  0  0
    0.0000    0.0000    0.0000 C   0  0  0  0  0  0  0  0  0  0  0  0
  1  2  1  0
  2  3  1  0
  3  4  1  0
  4  5  1  0
  5  6  1  0
  6  7  1  0
  3  8  1  0
  8  9  1  0
  9 10  2  0
 10 11  1  0
 11 12  2  0
 12 13  1  0
 13 14  2  0
 14 15  1  0
 15 16  1  0
 16 17  1  0
 17 18  2  0
 18 19  1  0
 19 20  2  0
 20 21  1  0
 21 22  2  0
 16  2  1  0
 22  8  1  0
 14  9  1  0
 22 17  1  0
M  END
>  <pIC50>  (107) 
5.94

>  <ChEMBL_ID>  (107) 
CHEMBL2112835

>  <document_journal>  (107) 
J. Med. Chem.

>  <bao_endpoint>  (107) 
BAO_0000190

>  <potential_duplicate>  (107) 
False

>  <uo_units>  (107) 
UO_0000065

>  <canonical_smiles>  (107) 
CN1[C@@H](CCCO)[C@H]2c3ccccc3C[C@@H]1c4ccccc24

>  <parent_molecule_chembl_id>  (107) 
CHEMBL2112835

>  <assay_type>  (107) 
B

>  <src_id>  (107) 
1

>  <ligand_efficiency>  (107) 
{u'le': u'0.37', u'bei': u'20.24', u'sei': u'25.31', u'lle': u'2.38'}

>  <standard_flag>  (107) 
True

>  <molecule_chembl_id>  (107) 
CHEMBL2112835

>  <target_organism>  (107) 
Homo sapiens

>  <standard_units>  (107) 
nM

>  <record_id>  (107) 
279783

>  <document_chembl_id>  (107) 
CHEMBL1145019

>  <bao_format>  (107) 
BAO_0000219

>  <data_validity_description>  (107) 
None

>  <activity_id>  (107) 
610544

>  <standard_type>  (107) 
IC50

>  <target_chembl_id>  (107) 
CHEMBL233

>  <data_validity_comment>  (107) 
None

>  <published_value>  (107) 
1150

>  <document_year>  (107) 
2003

>  <target_pref_name>  (107) 
Mu opioid receptor

>  <assay_chembl_id>  (107) 
CHEMBL753178

>  <standard_relation>  (107) 
=

>  <assay_description>  (107) 
In vitro binding affinity against cloned human Opioid receptor mu 1 expressed in HEK 293S cells

>  <published_relation>  (107) 
=

>  <standard_value>  (107) 
1150

>  <qudt_units>  (107) 
http://www.openphacts.org/units/Nanomolar

>  <target_tax_id>  (107) 
9606

>  <bao_label>  (107) 
cell-based format

>  <published_units>  (107) 
nM

>  <pchembl_value>  (107) 
5.94

>  <published_type>  (107) 
IC50

>  <activity_comment>  (107) 
None

$$$$

     RDKit          

 19 22  0  0  0  0  0  0  0  0999 V2000
    0.0000    0.0000    0.0000 C   0  0  0  0  0  0  0  0  0  0  0  0
    0.0000    0.0000    0.0000 C   0  0  0  0  0  0  0  0  0  0  0  0
    0.0000    0.0000    0.0000 C   0  0  0  0  0  0  0  0  0  0  0  0
    0.0000    0.0000    0.0000 C   0  0  0  0  0  0  0  0  0  0  0  0
    0.0000    0.0000    0.0000 C   0  0  0  0  0  0  0  0  0  0  0  0
    0.0000    0.0000    0.0000 C   0  0  0  0  0  0  0  0  0  0  0  0
    0.0000    0.0000    0.0000 C   0  0  0  0  0  0  0  0  0  0  0  0
    0.0000    0.0000    0.0000 C   0  0  0  0  0  0  0  0  0  0  0  0
    0.0000    0.0000    0.0000 C   0  0  0  0  0  0  0  0  0  0  0  0
    0.0000    0.0000    0.0000 C   0  0  0  0  0  0  0  0  0  0  0  0
    0.0000    0.0000    0.0000 C   0  0  0  0  0  0  0  0  0  0  0  0
    0.0000    0.0000    0.0000 N   0  0  0  0  0  0  0  0  0  0  0  0
    0.0000    0.0000    0.0000 C   0  0  0  0  0  0  0  0  0  0  0  0
    0.0000    0.0000    0.0000 C   0  0  0  0  0  0  0  0  0  0  0  0
    0.0000    0.0000    0.0000 C   0  0  0  0  0  0  0  0  0  0  0  0
    0.0000    0.0000    0.0000 C   0  0  0  0  0  0  0  0  0  0  0  0
    0.0000    0.0000    0.0000 C   0  0  0  0  0  0  0  0  0  0  0  0
    0.0000    0.0000    0.0000 C   0  0  0  0  0  0  0  0  0  0  0  0
    0.0000    0.0000    0.0000 C   0  0  0  0  0  0  0  0  0  0  0  0
  1  2  1  0
  2  3  1  0
  3  4  1  0
  4  5  2  0
  5  6  1  0
  6  7  2  0
  7  8  1  0
  8  9  2  0
  9 10  1  0
 10 11  1  0
 11 12  1  0
 12 13  1  0
 11 14  1  0
 14 15  2  0
 15 16  1  0
 16 17  2  0
 17 18  1  0
 18 19  2  0
 12  2  1  0
 19  3  1  0
  9  4  1  0
 19 14  1  0
M  END
>  <pIC50>  (108) 
6.21

>  <ChEMBL_ID>  (108) 
CHEMBL2112838

>  <document_journal>  (108) 
J. Med. Chem.

>  <bao_endpoint>  (108) 
BAO_0000190

>  <potential_duplicate>  (108) 
False

>  <uo_units>  (108) 
UO_0000065

>  <canonical_smiles>  (108) 
C[C@H]1[C@H]2c3ccccc3C[C@@H](N1C)c4ccccc24

>  <parent_molecule_chembl_id>  (108) 
CHEMBL2112838

>  <assay_type>  (108) 
B

>  <src_id>  (108) 
1

>  <ligand_efficiency>  (108) 
{u'le': u'0.45', u'bei': u'24.92', u'sei': u'191.79', u'lle': u'2.4'}

>  <standard_flag>  (108) 
True

>  <molecule_chembl_id>  (108) 
CHEMBL2112838

>  <target_organism>  (108) 
Homo sapiens

>  <standard_units>  (108) 
nM

>  <record_id>  (108) 
279789

>  <document_chembl_id>  (108) 
CHEMBL1145019

>  <bao_format>  (108) 
BAO_0000219

>  <data_validity_description>  (108) 
None

>  <activity_id>  (108) 
613024

>  <standard_type>  (108) 
IC50

>  <target_chembl_id>  (108) 
CHEMBL233

>  <data_validity_comment>  (108) 
None

>  <published_value>  (108) 
611

>  <document_year>  (108) 
2003

>  <target_pref_name>  (108) 
Mu opioid receptor

>  <assay_chembl_id>  (108) 
CHEMBL753178

>  <standard_relation>  (108) 
=

>  <assay_description>  (108) 
In vitro binding affinity against cloned human Opioid receptor mu 1 expressed in HEK 293S cells

>  <published_relation>  (108) 
=

>  <standard_value>  (108) 
611

>  <qudt_units>  (108) 
http://www.openphacts.org/units/Nanomolar

>  <target_tax_id>  (108) 
9606

>  <bao_label>  (108) 
cell-based format

>  <published_units>  (108) 
nM

>  <pchembl_value>  (108) 
6.21

>  <published_type>  (108) 
IC50

>  <activity_comment>  (108) 
None

$$$$

     RDKit          

 21 24  0  0  0  0  0  0  0  0999 V2000
    0.0000    0.0000    0.0000 C   0  0  0  0  0  0  0  0  0  0  0  0
    0.0000    0.0000    0.0000 C   0  0  0  0  0  0  0  0  0  0  0  0
    0.0000    0.0000    0.0000 C   0  0  0  0  0  0  0  0  0  0  0  0
    0.0000    0.0000    0.0000 C   0  0  0  0  0  0  0  0  0  0  0  0
    0.0000    0.0000    0.0000 C   0  0  0  0  0  0  0  0  0  0  0  0
    0.0000    0.0000    0.0000 C   0  0  0  0  0  0  0  0  0  0  0  0
    0.0000    0.0000    0.0000 C   0  0  0  0  0  0  0  0  0  0  0  0
    0.0000    0.0000    0.0000 C   0  0  0  0  0  0  0  0  0  0  0  0
    0.0000    0.0000    0.0000 C   0  0  0  0  0  0  0  0  0  0  0  0
    0.0000    0.0000    0.0000 C   0  0  0  0  0  0  0  0  0  0  0  0
    0.0000    0.0000    0.0000 C   0  0  0  0  0  0  0  0  0  0  0  0
    0.0000    0.0000    0.0000 N   0  0  0  0  0  0  0  0  0  0  0  0
    0.0000    0.0000    0.0000 C   0  0  0  0  0  0  0  0  0  0  0  0
    0.0000    0.0000    0.0000 C   0  0  0  0  0  0  0  0  0  0  0  0
    0.0000    0.0000    0.0000 C   0  0  0  0  0  0  0  0  0  0  0  0
    0.0000    0.0000    0.0000 C   0  0  0  0  0  0  0  0  0  0  0  0
    0.0000    0.0000    0.0000 C   0  0  0  0  0  0  0  0  0  0  0  0
    0.0000    0.0000    0.0000 C   0  0  0  0  0  0  0  0  0  0  0  0
    0.0000    0.0000    0.0000 C   0  0  0  0  0  0  0  0  0  0  0  0
    0.0000    0.0000    0.0000 C   0  0  0  0  0  0  0  0  0  0  0  0
    0.0000    0.0000    0.0000 C   0  0  0  0  0  0  0  0  0  0  0  0
  1  2  1  0
  2  3  1  0
  3  4  1  0
  4  5  2  0
  5  6  1  0
  6  7  2  0
  7  8  1  0
  8  9  2  0
  9 10  1  0
 10 11  1  0
 11 12  1  0
 12 13  1  0
 13 14  1  0
 14 15  2  0
 11 16  1  0
 16 17  2  0
 17 18  1  0
 18 19  2  0
 19 20  1  0
 20 21  2  0
 12  2  1  0
 21  3  1  0
  9  4  1  0
 21 16  1  0
M  END
>  <pIC50>  (109) 
5.7

>  <ChEMBL_ID>  (109) 
CHEMBL3707099

>  <document_journal>  (109) 
J. Med. Chem.

>  <bao_endpoint>  (109) 
BAO_0000190

>  <potential_duplicate>  (109) 
False

>  <uo_units>  (109) 
UO_0000065

>  <canonical_smiles>  (109) 
C[C@@H]1[C@H]2c3ccccc3C[C@H](N1CC=C)c4ccccc24

>  <parent_molecule_chembl_id>  (109) 
CHEMBL3707099

>  <assay_type>  (109) 
B

>  <src_id>  (109) 
1

>  <ligand_efficiency>  (109) 
{u'le': u'0.37', u'bei': u'20.69', u'sei': u'175.89', u'lle': u'1.27'}

>  <standard_flag>  (109) 
True

>  <molecule_chembl_id>  (109) 
CHEMBL3707099

>  <target_organism>  (109) 
Homo sapiens

>  <standard_units>  (109) 
nM

>  <record_id>  (109) 
279756

>  <document_chembl_id>  (109) 
CHEMBL1145019

>  <bao_format>  (109) 
BAO_0000219

>  <data_validity_description>  (109) 
None

>  <activity_id>  (109) 
614167

>  <standard_type>  (109) 
IC50

>  <target_chembl_id>  (109) 
CHEMBL233

>  <data_validity_comment>  (109) 
None

>  <published_value>  (109) 
2000

>  <document_year>  (109) 
2003

>  <target_pref_name>  (109) 
Mu opioid receptor

>  <assay_chembl_id>  (109) 
CHEMBL753178

>  <standard_relation>  (109) 
=

>  <assay_description>  (109) 
In vitro binding affinity against cloned human Opioid receptor mu 1 expressed in HEK 293S cells

>  <published_relation>  (109) 
=

>  <standard_value>  (109) 
2000

>  <qudt_units>  (109) 
http://www.openphacts.org/units/Nanomolar

>  <target_tax_id>  (109) 
9606

>  <bao_label>  (109) 
cell-based format

>  <published_units>  (109) 
nM

>  <pchembl_value>  (109) 
5.7

>  <published_type>  (109) 
IC50

>  <activity_comment>  (109) 
None

$$$$

     RDKit          

 21 25  0  0  0  0  0  0  0  0999 V2000
    0.0000    0.0000    0.0000 C   0  0  0  0  0  0  0  0  0  0  0  0
    0.0000    0.0000    0.0000 C   0  0  0  0  0  0  0  0  0  0  0  0
    0.0000    0.0000    0.0000 C   0  0  0  0  0  0  0  0  0  0  0  0
    0.0000    0.0000    0.0000 N   0  0  0  0  0  0  0  0  0  0  0  0
    0.0000    0.0000    0.0000 C   0  0  0  0  0  0  0  0  0  0  0  0
    0.0000    0.0000    0.0000 C   0  0  0  0  0  0  0  0  0  0  0  0
    0.0000    0.0000    0.0000 C   0  0  0  0  0  0  0  0  0  0  0  0
    0.0000    0.0000    0.0000 C   0  0  0  0  0  0  0  0  0  0  0  0
    0.0000    0.0000    0.0000 C   0  0  0  0  0  0  0  0  0  0  0  0
    0.0000    0.0000    0.0000 C   0  0  0  0  0  0  0  0  0  0  0  0
    0.0000    0.0000    0.0000 C   0  0  0  0  0  0  0  0  0  0  0  0
    0.0000    0.0000    0.0000 C   0  0  0  0  0  0  0  0  0  0  0  0
    0.0000    0.0000    0.0000 C   0  0  0  0  0  0  0  0  0  0  0  0
    0.0000    0.0000    0.0000 C   0  0  0  0  0  0  0  0  0  0  0  0
    0.0000    0.0000    0.0000 C   0  0  0  0  0  0  0  0  0  0  0  0
    0.0000    0.0000    0.0000 C   0  0  0  0  0  0  0  0  0  0  0  0
    0.0000    0.0000    0.0000 C   0  0  0  0  0  0  0  0  0  0  0  0
    0.0000    0.0000    0.0000 C   0  0  0  0  0  0  0  0  0  0  0  0
    0.0000    0.0000    0.0000 C   0  0  0  0  0  0  0  0  0  0  0  0
    0.0000    0.0000    0.0000 C   0  0  0  0  0  0  0  0  0  0  0  0
    0.0000    0.0000    0.0000 C   0  0  0  0  0  0  0  0  0  0  0  0
  1  2  1  0
  2  3  1  0
  3  4  1  0
  4  5  1  0
  5  6  1  0
  5  7  1  0
  7  8  1  0
  8  9  2  0
  9 10  1  0
 10 11  2  0
 11 12  1  0
 12 13  2  0
 13 14  1  0
 14 15  1  0
 15 16  1  0
 16 17  2  0
 17 18  1  0
 18 19  2  0
 19 20  1  0
 20 21  2  0
  6  1  1  0
 15  4  1  0
 21  7  1  0
 13  8  1  0
 21 16  1  0
M  END
>  <pIC50>  (110) 
6.41

>  <ChEMBL_ID>  (110) 
CHEMBL3706637

>  <document_journal>  (110) 
J. Med. Chem.

>  <bao_endpoint>  (110) 
BAO_0000190

>  <potential_duplicate>  (110) 
False

>  <uo_units>  (110) 
UO_0000065

>  <canonical_smiles>  (110) 
C1CCN2[C@@H](C1)[C@H]3c4ccccc4C[C@@H]2c5ccccc35

>  <parent_molecule_chembl_id>  (110) 
CHEMBL3706637

>  <assay_type>  (110) 
B

>  <src_id>  (110) 
1

>  <ligand_efficiency>  (110) 
{u'le': u'0.42', u'bei': u'23.27', u'sei': u'197.81', u'lle': u'2.03'}

>  <standard_flag>  (110) 
True

>  <molecule_chembl_id>  (110) 
CHEMBL3706637

>  <target_organism>  (110) 
Homo sapiens

>  <standard_units>  (110) 
nM

>  <record_id>  (110) 
279781

>  <document_chembl_id>  (110) 
CHEMBL1145019

>  <bao_format>  (110) 
BAO_0000219

>  <data_validity_description>  (110) 
None

>  <activity_id>  (110) 
617050

>  <standard_type>  (110) 
IC50

>  <target_chembl_id>  (110) 
CHEMBL233

>  <data_validity_comment>  (110) 
None

>  <published_value>  (110) 
390

>  <document_year>  (110) 
2003

>  <target_pref_name>  (110) 
Mu opioid receptor

>  <assay_chembl_id>  (110) 
CHEMBL753178

>  <standard_relation>  (110) 
=

>  <assay_description>  (110) 
In vitro binding affinity against cloned human Opioid receptor mu 1 expressed in HEK 293S cells

>  <published_relation>  (110) 
=

>  <standard_value>  (110) 
390

>  <qudt_units>  (110) 
http://www.openphacts.org/units/Nanomolar

>  <target_tax_id>  (110) 
9606

>  <bao_label>  (110) 
cell-based format

>  <published_units>  (110) 
nM

>  <pchembl_value>  (110) 
6.41

>  <published_type>  (110) 
IC50

>  <activity_comment>  (110) 
None

$$$$

     RDKit          

 33 38  0  0  0  0  0  0  0  0999 V2000
    0.0000    0.0000    0.0000 C   0  0  0  0  0  0  0  0  0  0  0  0
    0.0000    0.0000    0.0000 C   0  0  0  0  0  0  0  0  0  0  0  0
    0.0000    0.0000    0.0000 C   0  0  0  0  0  0  0  0  0  0  0  0
    0.0000    0.0000    0.0000 C   0  0  0  0  0  0  0  0  0  0  0  0
    0.0000    0.0000    0.0000 C   0  0  0  0  0  0  0  0  0  0  0  0
    0.0000    0.0000    0.0000 C   0  0  0  0  0  0  0  0  0  0  0  0
    0.0000    0.0000    0.0000 C   0  0  0  0  0  0  0  0  0  0  0  0
    0.0000    0.0000    0.0000 C   0  0  0  0  0  0  0  0  0  0  0  0
    0.0000    0.0000    0.0000 C   0  0  0  0  0  0  0  0  0  0  0  0
    0.0000    0.0000    0.0000 C   0  0  0  0  0  0  0  0  0  0  0  0
    0.0000    0.0000    0.0000 C   0  0  0  0  0  0  0  0  0  0  0  0
    0.0000    0.0000    0.0000 N   0  0  0  0  0  0  0  0  0  0  0  0
    0.0000    0.0000    0.0000 C   0  0  0  0  0  0  0  0  0  0  0  0
    0.0000    0.0000    0.0000 C   0  0  0  0  0  0  0  0  0  0  0  0
    0.0000    0.0000    0.0000 C   0  0  0  0  0  0  0  0  0  0  0  0
    0.0000    0.0000    0.0000 C   0  0  0  0  0  0  0  0  0  0  0  0
    0.0000    0.0000    0.0000 C   0  0  0  0  0  0  0  0  0  0  0  0
    0.0000    0.0000    0.0000 C   0  0  0  0  0  0  0  0  0  0  0  0
    0.0000    0.0000    0.0000 C   0  0  0  0  0  0  0  0  0  0  0  0
    0.0000    0.0000    0.0000 N   0  0  0  0  0  0  0  0  0  0  0  0
    0.0000    0.0000    0.0000 C   0  0  0  0  0  0  0  0  0  0  0  0
    0.0000    0.0000    0.0000 C   0  0  0  0  0  0  0  0  0  0  0  0
    0.0000    0.0000    0.0000 N   0  0  0  0  0  0  0  0  0  0  0  0
    0.0000    0.0000    0.0000 C   0  0  0  0  0  0  0  0  0  0  0  0
    0.0000    0.0000    0.0000 C   0  0  0  0  0  0  0  0  0  0  0  0
    0.0000    0.0000    0.0000 C   0  0  0  0  0  0  0  0  0  0  0  0
    0.0000    0.0000    0.0000 N   0  0  0  0  0  0  0  0  0  0  0  0
    0.0000    0.0000    0.0000 C   0  0  0  0  0  0  0  0  0  0  0  0
    0.0000    0.0000    0.0000 C   0  0  0  0  0  0  0  0  0  0  0  0
    0.0000    0.0000    0.0000 N   0  0  0  0  0  0  0  0  0  0  0  0
    0.0000    0.0000    0.0000 C   0  0  0  0  0  0  0  0  0  0  0  0
    0.0000    0.0000    0.0000 C   0  0  0  0  0  0  0  0  0  0  0  0
    0.0000    0.0000    0.0000 C   0  0  0  0  0  0  0  0  0  0  0  0
  1  2  1  0
  2  3  1  0
  3  4  1  0
  4  5  2  0
  5  6  1  0
  6  7  2  0
  7  8  1  0
  8  9  2  0
  9 10  1  0
 10 11  1  0
 11 12  1  0
 12 13  1  0
 11 14  1  0
 14 15  2  0
 15 16  1  0
 16 17  2  0
 17 18  1  0
 18 19  2  0
 17 20  1  0
 20 21  1  0
 21 22  1  0
 22 23  1  0
 23 24  1  0
 23 25  1  0
 25 26  1  0
  6 27  1  0
 27 28  1  0
 28 29  1  0
 29 30  1  0
 30 31  1  0
 30 32  1  0
 32 33  1  0
 12  2  1  0
 19  3  1  0
  9  4  1  0
 19 14  1  0
 26 20  1  0
 33 27  1  0
M  END
>  <pIC50>  (111) 
7.28

>  <ChEMBL_ID>  (111) 
CHEMBL3707094

>  <document_journal>  (111) 
J. Med. Chem.

>  <bao_endpoint>  (111) 
BAO_0000190

>  <potential_duplicate>  (111) 
False

>  <uo_units>  (111) 
UO_0000065

>  <canonical_smiles>  (111) 
C[C@@H]1[C@H]2c3cc(ccc3C[C@H](N1C)c4ccc(cc24)N5CCN(C)CC5)N6CCN(C)CC6

>  <parent_molecule_chembl_id>  (111) 
CHEMBL3707094

>  <assay_type>  (111) 
B

>  <src_id>  (111) 
1

>  <ligand_efficiency>  (111) 
{u'le': u'0.3', u'bei': u'16.33', u'sei': u'44.91', u'lle': u'3.23'}

>  <standard_flag>  (111) 
True

>  <molecule_chembl_id>  (111) 
CHEMBL3707094

>  <target_organism>  (111) 
Homo sapiens

>  <standard_units>  (111) 
nM

>  <record_id>  (111) 
279774

>  <document_chembl_id>  (111) 
CHEMBL1145019

>  <bao_format>  (111) 
BAO_0000219

>  <data_validity_description>  (111) 
None

>  <activity_id>  (111) 
618415

>  <standard_type>  (111) 
IC50

>  <target_chembl_id>  (111) 
CHEMBL233

>  <data_validity_comment>  (111) 
None

>  <published_value>  (111) 
53

>  <document_year>  (111) 
2003

>  <target_pref_name>  (111) 
Mu opioid receptor

>  <assay_chembl_id>  (111) 
CHEMBL753178

>  <standard_relation>  (111) 
=

>  <assay_description>  (111) 
In vitro binding affinity against cloned human Opioid receptor mu 1 expressed in HEK 293S cells

>  <published_relation>  (111) 
=

>  <standard_value>  (111) 
53

>  <qudt_units>  (111) 
http://www.openphacts.org/units/Nanomolar

>  <target_tax_id>  (111) 
9606

>  <bao_label>  (111) 
cell-based format

>  <published_units>  (111) 
nM

>  <pchembl_value>  (111) 
7.28

>  <published_type>  (111) 
IC50

>  <activity_comment>  (111) 
None

$$$$

     RDKit          

 25 29  0  0  0  0  0  0  0  0999 V2000
    0.0000    0.0000    0.0000 C   0  0  0  0  0  0  0  0  0  0  0  0
    0.0000    0.0000    0.0000 N   0  0  0  0  0  0  0  0  0  0  0  0
    0.0000    0.0000    0.0000 C   0  0  0  0  0  0  0  0  0  0  0  0
    0.0000    0.0000    0.0000 C   0  0  0  0  0  0  0  0  0  0  0  0
    0.0000    0.0000    0.0000 C   0  0  0  0  0  0  0  0  0  0  0  0
    0.0000    0.0000    0.0000 C   0  0  0  0  0  0  0  0  0  0  0  0
    0.0000    0.0000    0.0000 C   0  0  0  0  0  0  0  0  0  0  0  0
    0.0000    0.0000    0.0000 C   0  0  0  0  0  0  0  0  0  0  0  0
    0.0000    0.0000    0.0000 C   0  0  0  0  0  0  0  0  0  0  0  0
    0.0000    0.0000    0.0000 C   0  0  0  0  0  0  0  0  0  0  0  0
    0.0000    0.0000    0.0000 C   0  0  0  0  0  0  0  0  0  0  0  0
    0.0000    0.0000    0.0000 C   0  0  0  0  0  0  0  0  0  0  0  0
    0.0000    0.0000    0.0000 C   0  0  0  0  0  0  0  0  0  0  0  0
    0.0000    0.0000    0.0000 C   0  0  0  0  0  0  0  0  0  0  0  0
    0.0000    0.0000    0.0000 C   0  0  0  0  0  0  0  0  0  0  0  0
    0.0000    0.0000    0.0000 C   0  0  0  0  0  0  0  0  0  0  0  0
    0.0000    0.0000    0.0000 C   0  0  0  0  0  0  0  0  0  0  0  0
    0.0000    0.0000    0.0000 C   0  0  0  0  0  0  0  0  0  0  0  0
    0.0000    0.0000    0.0000 C   0  0  0  0  0  0  0  0  0  0  0  0
    0.0000    0.0000    0.0000 C   0  0  0  0  0  0  0  0  0  0  0  0
    0.0000    0.0000    0.0000 C   0  0  0  0  0  0  0  0  0  0  0  0
    0.0000    0.0000    0.0000 C   0  0  0  0  0  0  0  0  0  0  0  0
    0.0000    0.0000    0.0000 C   0  0  0  0  0  0  0  0  0  0  0  0
    0.0000    0.0000    0.0000 C   0  0  0  0  0  0  0  0  0  0  0  0
    0.0000    0.0000    0.0000 C   0  0  0  0  0  0  0  0  0  0  0  0
  1  2  1  0
  2  3  1  0
  3  4  1  0
  4  5  1  0
  5  6  2  0
  6  7  1  0
  7  8  2  0
  8  9  1  0
  9 10  2  0
  3 11  1  0
 11 12  1  0
 12 13  2  0
 13 14  1  0
 14 15  2  0
 15 16  1  0
 16 17  2  0
 17 18  1  0
 18 19  1  0
 19 20  1  0
 20 21  2  0
 21 22  1  0
 22 23  2  0
 23 24  1  0
 24 25  2  0
 19  2  1  0
 10  5  1  0
 25 11  1  0
 17 12  1  0
 25 20  1  0
M  END
>  <pIC50>  (112) 
5.98

>  <ChEMBL_ID>  (112) 
CHEMBL2112841

>  <document_journal>  (112) 
J. Med. Chem.

>  <bao_endpoint>  (112) 
BAO_0000190

>  <potential_duplicate>  (112) 
False

>  <uo_units>  (112) 
UO_0000065

>  <canonical_smiles>  (112) 
CN1[C@@H](Cc2ccccc2)[C@H]3c4ccccc4C[C@@H]1c5ccccc35

>  <parent_molecule_chembl_id>  (112) 
CHEMBL2112841

>  <assay_type>  (112) 
B

>  <src_id>  (112) 
1

>  <ligand_efficiency>  (112) 
{u'le': u'0.33', u'bei': u'18.37', u'sei': u'184.53', u'lle': u'0.61'}

>  <standard_flag>  (112) 
True

>  <molecule_chembl_id>  (112) 
CHEMBL2112841

>  <target_organism>  (112) 
Homo sapiens

>  <standard_units>  (112) 
nM

>  <record_id>  (112) 
279786

>  <document_chembl_id>  (112) 
CHEMBL1145019

>  <bao_format>  (112) 
BAO_0000219

>  <data_validity_description>  (112) 
None

>  <activity_id>  (112) 
620746

>  <standard_type>  (112) 
IC50

>  <target_chembl_id>  (112) 
CHEMBL233

>  <data_validity_comment>  (112) 
None

>  <published_value>  (112) 
1050

>  <document_year>  (112) 
2003

>  <target_pref_name>  (112) 
Mu opioid receptor

>  <assay_chembl_id>  (112) 
CHEMBL753178

>  <standard_relation>  (112) 
=

>  <assay_description>  (112) 
In vitro binding affinity against cloned human Opioid receptor mu 1 expressed in HEK 293S cells

>  <published_relation>  (112) 
=

>  <standard_value>  (112) 
1050

>  <qudt_units>  (112) 
http://www.openphacts.org/units/Nanomolar

>  <target_tax_id>  (112) 
9606

>  <bao_label>  (112) 
cell-based format

>  <published_units>  (112) 
nM

>  <pchembl_value>  (112) 
5.98

>  <published_type>  (112) 
IC50

>  <activity_comment>  (112) 
None

$$$$

     RDKit          

 21 24  0  0  0  0  0  0  0  0999 V2000
    0.0000    0.0000    0.0000 C   0  0  0  0  0  0  0  0  0  0  0  0
    0.0000    0.0000    0.0000 C   0  0  0  0  0  0  0  0  0  0  0  0
    0.0000    0.0000    0.0000 C   0  0  0  0  0  0  0  0  0  0  0  0
    0.0000    0.0000    0.0000 C   0  0  0  0  0  0  0  0  0  0  0  0
    0.0000    0.0000    0.0000 C   0  0  0  0  0  0  0  0  0  0  0  0
    0.0000    0.0000    0.0000 C   0  0  0  0  0  0  0  0  0  0  0  0
    0.0000    0.0000    0.0000 Br  0  0  0  0  0  0  0  0  0  0  0  0
    0.0000    0.0000    0.0000 C   0  0  0  0  0  0  0  0  0  0  0  0
    0.0000    0.0000    0.0000 C   0  0  0  0  0  0  0  0  0  0  0  0
    0.0000    0.0000    0.0000 C   0  0  0  0  0  0  0  0  0  0  0  0
    0.0000    0.0000    0.0000 C   0  0  0  0  0  0  0  0  0  0  0  0
    0.0000    0.0000    0.0000 C   0  0  0  0  0  0  0  0  0  0  0  0
    0.0000    0.0000    0.0000 N   0  0  0  0  0  0  0  0  0  0  0  0
    0.0000    0.0000    0.0000 C   0  0  0  0  0  0  0  0  0  0  0  0
    0.0000    0.0000    0.0000 C   0  0  0  0  0  0  0  0  0  0  0  0
    0.0000    0.0000    0.0000 C   0  0  0  0  0  0  0  0  0  0  0  0
    0.0000    0.0000    0.0000 C   0  0  0  0  0  0  0  0  0  0  0  0
    0.0000    0.0000    0.0000 C   0  0  0  0  0  0  0  0  0  0  0  0
    0.0000    0.0000    0.0000 Br  0  0  0  0  0  0  0  0  0  0  0  0
    0.0000    0.0000    0.0000 C   0  0  0  0  0  0  0  0  0  0  0  0
    0.0000    0.0000    0.0000 C   0  0  0  0  0  0  0  0  0  0  0  0
  1  2  1  0
  2  3  1  0
  3  4  1  0
  4  5  2  0
  5  6  1  0
  6  7  1  0
  6  8  2  0
  8  9  1  0
  9 10  2  0
 10 11  1  0
 11 12  1  0
 12 13  1  0
 13 14  1  0
 12 15  1  0
 15 16  2  0
 16 17  1  0
 17 18  2  0
 18 19  1  0
 18 20  1  0
 20 21  2  0
 13  2  1  0
 21  3  1  0
 10  4  1  0
 21 15  1  0
M  END
>  <pIC50>  (113) 
6.44

>  <ChEMBL_ID>  (113) 
CHEMBL3707086

>  <document_journal>  (113) 
J. Med. Chem.

>  <bao_endpoint>  (113) 
BAO_0000190

>  <potential_duplicate>  (113) 
False

>  <uo_units>  (113) 
UO_0000065

>  <canonical_smiles>  (113) 
C[C@@H]1[C@H]2c3cc(Br)ccc3C[C@H](N1C)c4ccc(Br)cc24

>  <parent_molecule_chembl_id>  (113) 
CHEMBL3707086

>  <assay_type>  (113) 
B

>  <src_id>  (113) 
1

>  <ligand_efficiency>  (113) 
{u'le': u'0.42', u'bei': u'15.83', u'sei': u'198.88', u'lle': u'1.13'}

>  <standard_flag>  (113) 
True

>  <molecule_chembl_id>  (113) 
CHEMBL3707086

>  <target_organism>  (113) 
Homo sapiens

>  <standard_units>  (113) 
nM

>  <record_id>  (113) 
279768

>  <document_chembl_id>  (113) 
CHEMBL1145019

>  <bao_format>  (113) 
BAO_0000219

>  <data_validity_description>  (113) 
None

>  <activity_id>  (113) 
622029

>  <standard_type>  (113) 
IC50

>  <target_chembl_id>  (113) 
CHEMBL233

>  <data_validity_comment>  (113) 
None

>  <published_value>  (113) 
360

>  <document_year>  (113) 
2003

>  <target_pref_name>  (113) 
Mu opioid receptor

>  <assay_chembl_id>  (113) 
CHEMBL753178

>  <standard_relation>  (113) 
=

>  <assay_description>  (113) 
In vitro binding affinity against cloned human Opioid receptor mu 1 expressed in HEK 293S cells

>  <published_relation>  (113) 
=

>  <standard_value>  (113) 
360

>  <qudt_units>  (113) 
http://www.openphacts.org/units/Nanomolar

>  <target_tax_id>  (113) 
9606

>  <bao_label>  (113) 
cell-based format

>  <published_units>  (113) 
nM

>  <pchembl_value>  (113) 
6.44

>  <published_type>  (113) 
IC50

>  <activity_comment>  (113) 
None

$$$$

     RDKit          

 38 44  0  0  0  0  0  0  0  0999 V2000
    0.0000    0.0000    0.0000 C   0  0  0  0  0  0  0  0  0  0  0  0
    0.0000    0.0000    0.0000 C   0  0  0  0  0  0  0  0  0  0  0  0
    0.0000    0.0000    0.0000 C   0  0  0  0  0  0  0  0  0  0  0  0
    0.0000    0.0000    0.0000 C   0  0  0  0  0  0  0  0  0  0  0  0
    0.0000    0.0000    0.0000 C   0  0  0  0  0  0  0  0  0  0  0  0
    0.0000    0.0000    0.0000 C   0  0  0  0  0  0  0  0  0  0  0  0
    0.0000    0.0000    0.0000 N   0  0  0  0  0  0  0  0  0  0  0  0
    0.0000    0.0000    0.0000 C   0  0  0  0  0  0  0  0  0  0  0  0
    0.0000    0.0000    0.0000 C   0  0  0  0  0  0  0  0  0  0  0  0
    0.0000    0.0000    0.0000 C   0  0  0  0  0  0  0  0  0  0  0  0
    0.0000    0.0000    0.0000 C   0  0  0  0  0  0  0  0  0  0  0  0
    0.0000    0.0000    0.0000 C   0  0  0  0  0  0  0  0  0  0  0  0
    0.0000    0.0000    0.0000 C   0  0  0  0  0  0  0  0  0  0  0  0
    0.0000    0.0000    0.0000 C   0  0  0  0  0  0  0  0  0  0  0  0
    0.0000    0.0000    0.0000 C   0  0  0  0  0  0  0  0  0  0  0  0
    0.0000    0.0000    0.0000 C   0  0  0  0  0  0  0  0  0  0  0  0
    0.0000    0.0000    0.0000 C   0  0  0  0  0  0  0  0  0  0  0  0
    0.0000    0.0000    0.0000 C   0  0  0  0  0  0  0  0  0  0  0  0
    0.0000    0.0000    0.0000 C   0  0  0  0  0  0  0  0  0  0  0  0
    0.0000    0.0000    0.0000 N   0  0  0  0  0  0  0  0  0  0  0  0
    0.0000    0.0000    0.0000 C   0  0  0  0  0  0  0  0  0  0  0  0
    0.0000    0.0000    0.0000 C   0  0  0  0  0  0  0  0  0  0  0  0
    0.0000    0.0000    0.0000 C   0  0  0  0  0  0  0  0  0  0  0  0
    0.0000    0.0000    0.0000 C   0  0  0  0  0  0  0  0  0  0  0  0
    0.0000    0.0000    0.0000 C   0  0  0  0  0  0  0  0  0  0  0  0
    0.0000    0.0000    0.0000 C   0  0  0  0  0  0  0  0  0  0  0  0
    0.0000    0.0000    0.0000 C   0  0  0  0  0  0  0  0  0  0  0  0
    0.0000    0.0000    0.0000 C   0  0  0  0  0  0  0  0  0  0  0  0
    0.0000    0.0000    0.0000 N   0  0  0  0  0  0  0  0  0  0  0  0
    0.0000    0.0000    0.0000 C   0  0  0  0  0  0  0  0  0  0  0  0
    0.0000    0.0000    0.0000 C   0  0  0  0  0  0  0  0  0  0  0  0
    0.0000    0.0000    0.0000 C   0  0  0  0  0  0  0  0  0  0  0  0
    0.0000    0.0000    0.0000 C   0  0  0  0  0  0  0  0  0  0  0  0
    0.0000    0.0000    0.0000 C   0  0  0  0  0  0  0  0  0  0  0  0
    0.0000    0.0000    0.0000 C   0  0  0  0  0  0  0  0  0  0  0  0
    0.0000    0.0000    0.0000 C   0  0  0  0  0  0  0  0  0  0  0  0
    0.0000    0.0000    0.0000 C   0  0  0  0  0  0  0  0  0  0  0  0
    0.0000    0.0000    0.0000 C   0  0  0  0  0  0  0  0  0  0  0  0
  1  2  1  0
  2  3  1  0
  3  4  1  0
  4  5  2  0
  5  6  1  0
  6  7  1  0
  7  8  1  0
  8  9  1  0
  9 10  2  0
 10 11  1  0
 11 12  2  0
 12 13  1  0
 13 14  2  0
  6 15  2  0
 15 16  1  0
 16 17  2  0
 17 18  1  0
 18 19  1  0
 19 20  1  0
 20 21  1  0
 21 22  1  0
 22 23  1  0
 23 24  1  0
 19 25  1  0
 25 26  2  0
 26 27  1  0
 27 28  2  0
 28 29  1  0
 29 30  1  0
 30 31  1  0
 31 32  2  0
 32 33  1  0
 33 34  2  0
 34 35  1  0
 35 36  2  0
 28 37  1  0
 37 38  2  0
 20  2  1  0
 38  3  1  0
 17  4  1  0
 14  9  1  0
 24 22  1  0
 38 25  1  0
 36 31  1  0
M  END
>  <pIC50>  (114) 
8.16

>  <ChEMBL_ID>  (114) 
CHEMBL3707089

>  <document_journal>  (114) 
J. Med. Chem.

>  <bao_endpoint>  (114) 
BAO_0000190

>  <potential_duplicate>  (114) 
False

>  <uo_units>  (114) 
UO_0000065

>  <canonical_smiles>  (114) 
C[C@@H]1[C@H]2c3cc(NCc4ccccc4)ccc3C[C@H](N1CC5CC5)c6ccc(NCc7ccccc7)cc26

>  <parent_molecule_chembl_id>  (114) 
CHEMBL3707089

>  <assay_type>  (114) 
B

>  <src_id>  (114) 
1

>  <ligand_efficiency>  (114) 
{u'le': u'0.29', u'bei': u'16.32', u'sei': u'29.88', u'lle': u'0.73'}

>  <standard_flag>  (114) 
True

>  <molecule_chembl_id>  (114) 
CHEMBL3707089

>  <target_organism>  (114) 
Homo sapiens

>  <standard_units>  (114) 
nM

>  <record_id>  (114) 
279775

>  <document_chembl_id>  (114) 
CHEMBL1145019

>  <bao_format>  (114) 
BAO_0000219

>  <data_validity_description>  (114) 
None

>  <activity_id>  (114) 
622033

>  <standard_type>  (114) 
IC50

>  <target_chembl_id>  (114) 
CHEMBL233

>  <data_validity_comment>  (114) 
None

>  <published_value>  (114) 
7

>  <document_year>  (114) 
2003

>  <target_pref_name>  (114) 
Mu opioid receptor

>  <assay_chembl_id>  (114) 
CHEMBL753178

>  <standard_relation>  (114) 
=

>  <assay_description>  (114) 
In vitro binding affinity against cloned human Opioid receptor mu 1 expressed in HEK 293S cells

>  <published_relation>  (114) 
=

>  <standard_value>  (114) 
7

>  <qudt_units>  (114) 
http://www.openphacts.org/units/Nanomolar

>  <target_tax_id>  (114) 
9606

>  <bao_label>  (114) 
cell-based format

>  <published_units>  (114) 
nM

>  <pchembl_value>  (114) 
8.16

>  <published_type>  (114) 
IC50

>  <activity_comment>  (114) 
None

$$$$

     RDKit          

 21 24  0  0  0  0  0  0  0  0999 V2000
    0.0000    0.0000    0.0000 C   0  0  0  0  0  0  0  0  0  0  0  0
    0.0000    0.0000    0.0000 C   0  0  0  0  0  0  0  0  0  0  0  0
    0.0000    0.0000    0.0000 C   0  0  0  0  0  0  0  0  0  0  0  0
    0.0000    0.0000    0.0000 C   0  0  0  0  0  0  0  0  0  0  0  0
    0.0000    0.0000    0.0000 C   0  0  0  0  0  0  0  0  0  0  0  0
    0.0000    0.0000    0.0000 C   0  0  0  0  0  0  0  0  0  0  0  0
    0.0000    0.0000    0.0000 O   0  0  0  0  0  0  0  0  0  0  0  0
    0.0000    0.0000    0.0000 C   0  0  0  0  0  0  0  0  0  0  0  0
    0.0000    0.0000    0.0000 C   0  0  0  0  0  0  0  0  0  0  0  0
    0.0000    0.0000    0.0000 C   0  0  0  0  0  0  0  0  0  0  0  0
    0.0000    0.0000    0.0000 C   0  0  0  0  0  0  0  0  0  0  0  0
    0.0000    0.0000    0.0000 C   0  0  0  0  0  0  0  0  0  0  0  0
    0.0000    0.0000    0.0000 N   0  0  0  0  0  0  0  0  0  0  0  0
    0.0000    0.0000    0.0000 C   0  0  0  0  0  0  0  0  0  0  0  0
    0.0000    0.0000    0.0000 C   0  0  0  0  0  0  0  0  0  0  0  0
    0.0000    0.0000    0.0000 C   0  0  0  0  0  0  0  0  0  0  0  0
    0.0000    0.0000    0.0000 C   0  0  0  0  0  0  0  0  0  0  0  0
    0.0000    0.0000    0.0000 C   0  0  0  0  0  0  0  0  0  0  0  0
    0.0000    0.0000    0.0000 O   0  0  0  0  0  0  0  0  0  0  0  0
    0.0000    0.0000    0.0000 C   0  0  0  0  0  0  0  0  0  0  0  0
    0.0000    0.0000    0.0000 C   0  0  0  0  0  0  0  0  0  0  0  0
  1  2  1  0
  2  3  1  0
  3  4  1  0
  4  5  2  0
  5  6  1  0
  6  7  1  0
  6  8  2  0
  8  9  1  0
  9 10  2  0
 10 11  1  0
 11 12  1  0
 12 13  1  0
 13 14  1  0
 12 15  1  0
 15 16  2  0
 16 17  1  0
 17 18  2  0
 18 19  1  0
 18 20  1  0
 20 21  2  0
 13  2  1  0
 21  3  1  0
 10  4  1  0
 21 15  1  0
M  END
>  <pIC50>  (115) 
7.8

>  <ChEMBL_ID>  (115) 
CHEMBL3707083

>  <document_journal>  (115) 
J. Med. Chem.

>  <bao_endpoint>  (115) 
BAO_0000190

>  <potential_duplicate>  (115) 
False

>  <uo_units>  (115) 
UO_0000065

>  <canonical_smiles>  (115) 
C[C@@H]1[C@H]2c3cc(O)ccc3C[C@H](N1C)c4ccc(O)cc24

>  <parent_molecule_chembl_id>  (115) 
CHEMBL3707083

>  <assay_type>  (115) 
B

>  <src_id>  (115) 
1

>  <ligand_efficiency>  (115) 
{u'le': u'0.51', u'bei': u'27.71', u'sei': u'17.84', u'lle': u'4.47'}

>  <standard_flag>  (115) 
True

>  <molecule_chembl_id>  (115) 
CHEMBL3707083

>  <target_organism>  (115) 
Homo sapiens

>  <standard_units>  (115) 
nM

>  <record_id>  (115) 
279764

>  <document_chembl_id>  (115) 
CHEMBL1145019

>  <bao_format>  (115) 
BAO_0000219

>  <data_validity_description>  (115) 
None

>  <activity_id>  (115) 
623310

>  <standard_type>  (115) 
IC50

>  <target_chembl_id>  (115) 
CHEMBL233

>  <data_validity_comment>  (115) 
None

>  <published_value>  (115) 
16

>  <document_year>  (115) 
2003

>  <target_pref_name>  (115) 
Mu opioid receptor

>  <assay_chembl_id>  (115) 
CHEMBL753178

>  <standard_relation>  (115) 
=

>  <assay_description>  (115) 
In vitro binding affinity against cloned human Opioid receptor mu 1 expressed in HEK 293S cells

>  <published_relation>  (115) 
=

>  <standard_value>  (115) 
16

>  <qudt_units>  (115) 
http://www.openphacts.org/units/Nanomolar

>  <target_tax_id>  (115) 
9606

>  <bao_label>  (115) 
cell-based format

>  <published_units>  (115) 
nM

>  <pchembl_value>  (115) 
7.8

>  <published_type>  (115) 
IC50

>  <activity_comment>  (115) 
None

$$$$

     RDKit          

 33 38  0  0  0  0  0  0  0  0999 V2000
    0.0000    0.0000    0.0000 C   0  0  0  0  0  0  0  0  0  0  0  0
    0.0000    0.0000    0.0000 C   0  0  0  0  0  0  0  0  0  0  0  0
    0.0000    0.0000    0.0000 C   0  0  0  0  0  0  0  0  0  0  0  0
    0.0000    0.0000    0.0000 C   0  0  0  0  0  0  0  0  0  0  0  0
    0.0000    0.0000    0.0000 C   0  0  0  0  0  0  0  0  0  0  0  0
    0.0000    0.0000    0.0000 C   0  0  0  0  0  0  0  0  0  0  0  0
    0.0000    0.0000    0.0000 N   0  0  0  0  0  0  0  0  0  0  0  0
    0.0000    0.0000    0.0000 C   0  0  0  0  0  0  0  0  0  0  0  0
    0.0000    0.0000    0.0000 C   0  0  0  0  0  0  0  0  0  0  0  0
    0.0000    0.0000    0.0000 C   0  0  0  0  0  0  0  0  0  0  0  0
    0.0000    0.0000    0.0000 C   0  0  0  0  0  0  0  0  0  0  0  0
    0.0000    0.0000    0.0000 C   0  0  0  0  0  0  0  0  0  0  0  0
    0.0000    0.0000    0.0000 C   0  0  0  0  0  0  0  0  0  0  0  0
    0.0000    0.0000    0.0000 C   0  0  0  0  0  0  0  0  0  0  0  0
    0.0000    0.0000    0.0000 C   0  0  0  0  0  0  0  0  0  0  0  0
    0.0000    0.0000    0.0000 C   0  0  0  0  0  0  0  0  0  0  0  0
    0.0000    0.0000    0.0000 C   0  0  0  0  0  0  0  0  0  0  0  0
    0.0000    0.0000    0.0000 C   0  0  0  0  0  0  0  0  0  0  0  0
    0.0000    0.0000    0.0000 N   0  0  0  0  0  0  0  0  0  0  0  0
    0.0000    0.0000    0.0000 C   0  0  0  0  0  0  0  0  0  0  0  0
    0.0000    0.0000    0.0000 C   0  0  0  0  0  0  0  0  0  0  0  0
    0.0000    0.0000    0.0000 C   0  0  0  0  0  0  0  0  0  0  0  0
    0.0000    0.0000    0.0000 C   0  0  0  0  0  0  0  0  0  0  0  0
    0.0000    0.0000    0.0000 C   0  0  0  0  0  0  0  0  0  0  0  0
    0.0000    0.0000    0.0000 N   0  0  0  0  0  0  0  0  0  0  0  0
    0.0000    0.0000    0.0000 C   0  0  0  0  0  0  0  0  0  0  0  0
    0.0000    0.0000    0.0000 C   0  0  0  0  0  0  0  0  0  0  0  0
    0.0000    0.0000    0.0000 C   0  0  0  0  0  0  0  0  0  0  0  0
    0.0000    0.0000    0.0000 C   0  0  0  0  0  0  0  0  0  0  0  0
    0.0000    0.0000    0.0000 C   0  0  0  0  0  0  0  0  0  0  0  0
    0.0000    0.0000    0.0000 C   0  0  0  0  0  0  0  0  0  0  0  0
    0.0000    0.0000    0.0000 C   0  0  0  0  0  0  0  0  0  0  0  0
    0.0000    0.0000    0.0000 C   0  0  0  0  0  0  0  0  0  0  0  0
  1  2  1  0
  2  3  1  0
  3  4  1  0
  4  5  2  0
  5  6  1  0
  6  7  1  0
  7  8  1  0
  8  9  2  0
  9 10  1  0
 10 11  2  0
 11 12  1  0
 12 13  2  0
  6 14  2  0
 14 15  1  0
 15 16  2  0
 16 17  1  0
 17 18  1  0
 18 19  1  0
 19 20  1  0
 18 21  1  0
 21 22  2  0
 22 23  1  0
 23 24  2  0
 24 25  1  0
 25 26  1  0
 26 27  2  0
 27 28  1  0
 28 29  2  0
 29 30  1  0
 30 31  2  0
 24 32  1  0
 32 33  2  0
 19  2  1  0
 33  3  1  0
 16  4  1  0
 13  8  1  0
 33 21  1  0
 31 26  1  0
M  END
>  <pIC50>  (116) 
7.25

>  <ChEMBL_ID>  (116) 
CHEMBL3707095

>  <document_journal>  (116) 
J. Med. Chem.

>  <bao_endpoint>  (116) 
BAO_0000190

>  <potential_duplicate>  (116) 
False

>  <uo_units>  (116) 
UO_0000065

>  <canonical_smiles>  (116) 
C[C@@H]1[C@H]2c3cc(Nc4ccccc4)ccc3C[C@H](N1C)c5ccc(Nc6ccccc6)cc25

>  <parent_molecule_chembl_id>  (116) 
CHEMBL3707095

>  <assay_type>  (116) 
B

>  <src_id>  (116) 
1

>  <ligand_efficiency>  (116) 
{u'le': u'0.3', u'bei': u'16.8', u'sei': u'26.57', u'lle': u'0.34'}

>  <standard_flag>  (116) 
True

>  <molecule_chembl_id>  (116) 
CHEMBL3707095

>  <target_organism>  (116) 
Homo sapiens

>  <standard_units>  (116) 
nM

>  <record_id>  (116) 
279778

>  <document_chembl_id>  (116) 
CHEMBL1145019

>  <bao_format>  (116) 
BAO_0000219

>  <data_validity_description>  (116) 
None

>  <activity_id>  (116) 
625823

>  <standard_type>  (116) 
IC50

>  <target_chembl_id>  (116) 
CHEMBL233

>  <data_validity_comment>  (116) 
None

>  <published_value>  (116) 
56

>  <document_year>  (116) 
2003

>  <target_pref_name>  (116) 
Mu opioid receptor

>  <assay_chembl_id>  (116) 
CHEMBL753178

>  <standard_relation>  (116) 
=

>  <assay_description>  (116) 
In vitro binding affinity against cloned human Opioid receptor mu 1 expressed in HEK 293S cells

>  <published_relation>  (116) 
=

>  <standard_value>  (116) 
56

>  <qudt_units>  (116) 
http://www.openphacts.org/units/Nanomolar

>  <target_tax_id>  (116) 
9606

>  <bao_label>  (116) 
cell-based format

>  <published_units>  (116) 
nM

>  <pchembl_value>  (116) 
7.25

>  <published_type>  (116) 
IC50

>  <activity_comment>  (116) 
None

$$$$

     RDKit          

 30 34  0  0  0  0  0  0  0  0999 V2000
    0.0000    0.0000    0.0000 C   0  0  0  0  0  0  0  0  0  0  0  0
    0.0000    0.0000    0.0000 C   0  0  0  0  0  0  0  0  0  0  0  0
    0.0000    0.0000    0.0000 C   0  0  0  0  0  0  0  0  0  0  0  0
    0.0000    0.0000    0.0000 C   0  0  0  0  0  0  0  0  0  0  0  0
    0.0000    0.0000    0.0000 C   0  0  0  0  0  0  0  0  0  0  0  0
    0.0000    0.0000    0.0000 C   0  0  0  0  0  0  0  0  0  0  0  0
    0.0000    0.0000    0.0000 O   0  0  0  0  0  0  0  0  0  0  0  0
    0.0000    0.0000    0.0000 C   0  0  0  0  0  0  0  0  0  0  0  0
    0.0000    0.0000    0.0000 O   0  0  0  0  0  0  0  0  0  0  0  0
    0.0000    0.0000    0.0000 C   0  0  0  0  0  0  0  0  0  0  0  0
    0.0000    0.0000    0.0000 C   0  0  0  0  0  0  0  0  0  0  0  0
    0.0000    0.0000    0.0000 C   0  0  0  0  0  0  0  0  0  0  0  0
    0.0000    0.0000    0.0000 C   0  0  0  0  0  0  0  0  0  0  0  0
    0.0000    0.0000    0.0000 C   0  0  0  0  0  0  0  0  0  0  0  0
    0.0000    0.0000    0.0000 C   0  0  0  0  0  0  0  0  0  0  0  0
    0.0000    0.0000    0.0000 N   0  0  0  0  0  0  0  0  0  0  0  0
    0.0000    0.0000    0.0000 C   0  0  0  0  0  0  0  0  0  0  0  0
    0.0000    0.0000    0.0000 C   0  0  0  0  0  0  0  0  0  0  0  0
    0.0000    0.0000    0.0000 C   0  0  0  0  0  0  0  0  0  0  0  0
    0.0000    0.0000    0.0000 C   0  0  0  0  0  0  0  0  0  0  0  0
    0.0000    0.0000    0.0000 C   0  0  0  0  0  0  0  0  0  0  0  0
    0.0000    0.0000    0.0000 C   0  0  0  0  0  0  0  0  0  0  0  0
    0.0000    0.0000    0.0000 C   0  0  0  0  0  0  0  0  0  0  0  0
    0.0000    0.0000    0.0000 C   0  0  0  0  0  0  0  0  0  0  0  0
    0.0000    0.0000    0.0000 O   0  0  0  0  0  0  0  0  0  0  0  0
    0.0000    0.0000    0.0000 C   0  0  0  0  0  0  0  0  0  0  0  0
    0.0000    0.0000    0.0000 O   0  0  0  0  0  0  0  0  0  0  0  0
    0.0000    0.0000    0.0000 C   0  0  0  0  0  0  0  0  0  0  0  0
    0.0000    0.0000    0.0000 C   0  0  0  0  0  0  0  0  0  0  0  0
    0.0000    0.0000    0.0000 C   0  0  0  0  0  0  0  0  0  0  0  0
  1  2  1  0
  2  3  1  0
  3  4  1  0
  4  5  2  0
  5  6  1  0
  6  7  1  0
  7  8  1  0
  8  9  2  0
  8 10  1  0
  6 11  2  0
 11 12  1  0
 12 13  2  0
 13 14  1  0
 14 15  1  0
 15 16  1  0
 16 17  1  0
 17 18  1  0
 18 19  1  0
 19 20  1  0
 15 21  1  0
 21 22  2  0
 22 23  1  0
 23 24  2  0
 24 25  1  0
 25 26  1  0
 26 27  2  0
 26 28  1  0
 24 29  1  0
 29 30  2  0
 16  2  1  0
 30  3  1  0
 13  4  1  0
 20 18  1  0
 30 21  1  0
M  END
>  <pIC50>  (117) 
7.36

>  <ChEMBL_ID>  (117) 
CHEMBL3707080

>  <document_journal>  (117) 
J. Med. Chem.

>  <bao_endpoint>  (117) 
BAO_0000190

>  <potential_duplicate>  (117) 
False

>  <uo_units>  (117) 
UO_0000065

>  <canonical_smiles>  (117) 
C[C@@H]1[C@H]2c3cc(OC(=O)C)ccc3C[C@H](N1CC4CC4)c5ccc(OC(=O)C)cc25

>  <parent_molecule_chembl_id>  (117) 
CHEMBL3707080

>  <assay_type>  (117) 
B

>  <src_id>  (117) 
1

>  <ligand_efficiency>  (117) 
{u'le': u'0.33', u'bei': u'18.14', u'sei': u'13.17', u'lle': u'3.19'}

>  <standard_flag>  (117) 
True

>  <molecule_chembl_id>  (117) 
CHEMBL3707080

>  <target_organism>  (117) 
Homo sapiens

>  <standard_units>  (117) 
nM

>  <record_id>  (117) 
279761

>  <document_chembl_id>  (117) 
CHEMBL1145019

>  <bao_format>  (117) 
BAO_0000219

>  <data_validity_description>  (117) 
None

>  <activity_id>  (117) 
627024

>  <standard_type>  (117) 
IC50

>  <target_chembl_id>  (117) 
CHEMBL233

>  <data_validity_comment>  (117) 
None

>  <published_value>  (117) 
44

>  <document_year>  (117) 
2003

>  <target_pref_name>  (117) 
Mu opioid receptor

>  <assay_chembl_id>  (117) 
CHEMBL753178

>  <standard_relation>  (117) 
=

>  <assay_description>  (117) 
In vitro binding affinity against cloned human Opioid receptor mu 1 expressed in HEK 293S cells

>  <published_relation>  (117) 
=

>  <standard_value>  (117) 
44

>  <qudt_units>  (117) 
http://www.openphacts.org/units/Nanomolar

>  <target_tax_id>  (117) 
9606

>  <bao_label>  (117) 
cell-based format

>  <published_units>  (117) 
nM

>  <pchembl_value>  (117) 
7.36

>  <published_type>  (117) 
IC50

>  <activity_comment>  (117) 
None

$$$$

     RDKit          

 36 42  0  0  0  0  0  0  0  0999 V2000
    0.0000    0.0000    0.0000 C   0  0  0  0  0  0  0  0  0  0  0  0
    0.0000    0.0000    0.0000 C   0  0  0  0  0  0  0  0  0  0  0  0
    0.0000    0.0000    0.0000 C   0  0  0  0  0  0  0  0  0  0  0  0
    0.0000    0.0000    0.0000 C   0  0  0  0  0  0  0  0  0  0  0  0
    0.0000    0.0000    0.0000 C   0  0  0  0  0  0  0  0  0  0  0  0
    0.0000    0.0000    0.0000 C   0  0  0  0  0  0  0  0  0  0  0  0
    0.0000    0.0000    0.0000 N   0  0  0  0  0  0  0  0  0  0  0  0
    0.0000    0.0000    0.0000 C   0  0  0  0  0  0  0  0  0  0  0  0
    0.0000    0.0000    0.0000 C   0  0  0  0  0  0  0  0  0  0  0  0
    0.0000    0.0000    0.0000 C   0  0  0  0  0  0  0  0  0  0  0  0
    0.0000    0.0000    0.0000 C   0  0  0  0  0  0  0  0  0  0  0  0
    0.0000    0.0000    0.0000 C   0  0  0  0  0  0  0  0  0  0  0  0
    0.0000    0.0000    0.0000 C   0  0  0  0  0  0  0  0  0  0  0  0
    0.0000    0.0000    0.0000 C   0  0  0  0  0  0  0  0  0  0  0  0
    0.0000    0.0000    0.0000 C   0  0  0  0  0  0  0  0  0  0  0  0
    0.0000    0.0000    0.0000 C   0  0  0  0  0  0  0  0  0  0  0  0
    0.0000    0.0000    0.0000 C   0  0  0  0  0  0  0  0  0  0  0  0
    0.0000    0.0000    0.0000 C   0  0  0  0  0  0  0  0  0  0  0  0
    0.0000    0.0000    0.0000 N   0  0  0  0  0  0  0  0  0  0  0  0
    0.0000    0.0000    0.0000 C   0  0  0  0  0  0  0  0  0  0  0  0
    0.0000    0.0000    0.0000 C   0  0  0  0  0  0  0  0  0  0  0  0
    0.0000    0.0000    0.0000 C   0  0  0  0  0  0  0  0  0  0  0  0
    0.0000    0.0000    0.0000 C   0  0  0  0  0  0  0  0  0  0  0  0
    0.0000    0.0000    0.0000 C   0  0  0  0  0  0  0  0  0  0  0  0
    0.0000    0.0000    0.0000 C   0  0  0  0  0  0  0  0  0  0  0  0
    0.0000    0.0000    0.0000 C   0  0  0  0  0  0  0  0  0  0  0  0
    0.0000    0.0000    0.0000 C   0  0  0  0  0  0  0  0  0  0  0  0
    0.0000    0.0000    0.0000 N   0  0  0  0  0  0  0  0  0  0  0  0
    0.0000    0.0000    0.0000 C   0  0  0  0  0  0  0  0  0  0  0  0
    0.0000    0.0000    0.0000 C   0  0  0  0  0  0  0  0  0  0  0  0
    0.0000    0.0000    0.0000 C   0  0  0  0  0  0  0  0  0  0  0  0
    0.0000    0.0000    0.0000 C   0  0  0  0  0  0  0  0  0  0  0  0
    0.0000    0.0000    0.0000 C   0  0  0  0  0  0  0  0  0  0  0  0
    0.0000    0.0000    0.0000 C   0  0  0  0  0  0  0  0  0  0  0  0
    0.0000    0.0000    0.0000 C   0  0  0  0  0  0  0  0  0  0  0  0
    0.0000    0.0000    0.0000 C   0  0  0  0  0  0  0  0  0  0  0  0
  1  2  1  0
  2  3  1  0
  3  4  1  0
  4  5  2  0
  5  6  1  0
  6  7  1  0
  7  8  1  0
  8  9  2  0
  9 10  1  0
 10 11  2  0
 11 12  1  0
 12 13  2  0
  6 14  2  0
 14 15  1  0
 15 16  2  0
 16 17  1  0
 17 18  1  0
 18 19  1  0
 19 20  1  0
 20 21  1  0
 21 22  1  0
 22 23  1  0
 18 24  1  0
 24 25  2  0
 25 26  1  0
 26 27  2  0
 27 28  1  0
 28 29  1  0
 29 30  2  0
 30 31  1  0
 31 32  2  0
 32 33  1  0
 33 34  2  0
 27 35  1  0
 35 36  2  0
 19  2  1  0
 36  3  1  0
 16  4  1  0
 13  8  1  0
 23 21  1  0
 36 24  1  0
 34 29  1  0
M  END
>  <pIC50>  (118) 
7.09

>  <ChEMBL_ID>  (118) 
CHEMBL3707103

>  <document_journal>  (118) 
J. Med. Chem.

>  <bao_endpoint>  (118) 
BAO_0000190

>  <potential_duplicate>  (118) 
False

>  <uo_units>  (118) 
UO_0000065

>  <canonical_smiles>  (118) 
C[C@@H]1[C@H]2c3cc(Nc4ccccc4)ccc3C[C@H](N1CC5CC5)c6ccc(Nc7ccccc7)cc26

>  <parent_molecule_chembl_id>  (118) 
CHEMBL3707103

>  <assay_type>  (118) 
B

>  <src_id>  (118) 
1

>  <ligand_efficiency>  (118) 
{u'le': u'0.27', u'bei': u'15.02', u'sei': u'25.97', u'lle': u'-0.64'}

>  <standard_flag>  (118) 
True

>  <molecule_chembl_id>  (118) 
CHEMBL3707103

>  <target_organism>  (118) 
Homo sapiens

>  <standard_units>  (118) 
nM

>  <record_id>  (118) 
279777

>  <document_chembl_id>  (118) 
CHEMBL1145019

>  <bao_format>  (118) 
BAO_0000219

>  <data_validity_description>  (118) 
None

>  <activity_id>  (118) 
627028

>  <standard_type>  (118) 
IC50

>  <target_chembl_id>  (118) 
CHEMBL233

>  <data_validity_comment>  (118) 
None

>  <published_value>  (118) 
82

>  <document_year>  (118) 
2003

>  <target_pref_name>  (118) 
Mu opioid receptor

>  <assay_chembl_id>  (118) 
CHEMBL753178

>  <standard_relation>  (118) 
=

>  <assay_description>  (118) 
In vitro binding affinity against cloned human Opioid receptor mu 1 expressed in HEK 293S cells

>  <published_relation>  (118) 
=

>  <standard_value>  (118) 
82

>  <qudt_units>  (118) 
http://www.openphacts.org/units/Nanomolar

>  <target_tax_id>  (118) 
9606

>  <bao_label>  (118) 
cell-based format

>  <published_units>  (118) 
nM

>  <pchembl_value>  (118) 
7.09

>  <published_type>  (118) 
IC50

>  <activity_comment>  (118) 
None

$$$$

     RDKit          

 21 25  0  0  0  0  0  0  0  0999 V2000
    0.0000    0.0000    0.0000 C   0  0  0  0  0  0  0  0  0  0  0  0
    0.0000    0.0000    0.0000 N   0  0  0  0  0  0  0  0  0  0  0  0
    0.0000    0.0000    0.0000 C   0  0  0  0  0  0  0  0  0  0  0  0
    0.0000    0.0000    0.0000 C   0  0  0  0  0  0  0  0  0  0  0  0
    0.0000    0.0000    0.0000 C   0  0  0  0  0  0  0  0  0  0  0  0
    0.0000    0.0000    0.0000 C   0  0  0  0  0  0  0  0  0  0  0  0
    0.0000    0.0000    0.0000 O   0  0  0  0  0  0  0  0  0  0  0  0
    0.0000    0.0000    0.0000 C   0  0  0  0  0  0  0  0  0  0  0  0
    0.0000    0.0000    0.0000 C   0  0  0  0  0  0  0  0  0  0  0  0
    0.0000    0.0000    0.0000 O   0  0  0  0  0  0  0  0  0  0  0  0
    0.0000    0.0000    0.0000 C   0  0  0  0  0  0  0  0  0  0  0  0
    0.0000    0.0000    0.0000 C   0  0  0  0  0  0  0  0  0  0  0  0
    0.0000    0.0000    0.0000 C   0  0  0  0  0  0  0  0  0  0  0  0
    0.0000    0.0000    0.0000 C   0  0  0  0  0  0  0  0  0  0  0  0
    0.0000    0.0000    0.0000 C   0  0  0  0  0  0  0  0  0  0  0  0
    0.0000    0.0000    0.0000 C   0  0  0  0  0  0  0  0  0  0  0  0
    0.0000    0.0000    0.0000 C   0  0  0  0  0  0  0  0  0  0  0  0
    0.0000    0.0000    0.0000 C   0  0  0  0  0  0  0  0  0  0  0  0
    0.0000    0.0000    0.0000 C   0  0  0  0  0  0  0  0  0  0  0  0
    0.0000    0.0000    0.0000 O   0  0  0  0  0  0  0  0  0  0  0  0
    0.0000    0.0000    0.0000 C   0  0  0  0  0  0  0  0  0  0  0  0
  1  2  1  0
  2  3  1  0
  3  4  1  0
  4  5  1  0
  5  6  1  0
  6  7  1  0
  7  8  1  0
  8  9  2  0
  9 10  1  0
  9 11  1  0
 11 12  2  0
 12 13  1  0
 13 14  1  0
 14 15  1  0
 15 16  1  0
 16 17  1  0
 17 18  2  0
 18 19  1  0
 19 20  1  0
 13 21  2  0
 15  2  1  0
 16  5  1  0
 21  5  1  0
 19  6  1  0
 21  8  1  0
M  END
>  <pIC50>  (119) 
8.6025

>  <ChEMBL_ID>  (119) 
CHEMBL70

>  <document_journal>  (119) 
J. Med. Chem.

>  <bao_endpoint>  (119) 
BAO_0000190

>  <potential_duplicate>  (119) 
False

>  <uo_units>  (119) 
UO_0000065

>  <canonical_smiles>  (119) 
CN1CC[C@]23[C@H]4Oc5c(O)ccc(C[C@@H]1[C@@H]2C=C[C@@H]4O)c35

>  <parent_molecule_chembl_id>  (119) 
CHEMBL70

>  <assay_type>  (119) 
B

>  <src_id>  (119) 
1

>  <ligand_efficiency>  (119) 
{u'le': u'0.6', u'bei': u'32.4', u'sei': u'17.46', u'lle': u'7.83'}

>  <standard_flag>  (119) 
True

>  <molecule_chembl_id>  (119) 
CHEMBL70

>  <target_organism>  (119) 
Homo sapiens

>  <standard_units>  (119) 
nM

>  <record_id>  (119) 
279753

>  <document_chembl_id>  (119) 
CHEMBL1145019

>  <bao_format>  (119) 
BAO_0000219

>  <data_validity_description>  (119) 
None

>  <activity_id>  (119) 
628306

>  <standard_type>  (119) 
IC50

>  <target_chembl_id>  (119) 
CHEMBL233

>  <data_validity_comment>  (119) 
None

>  <published_value>  (119) 
0.57

>  <document_year>  (119) 
2003

>  <target_pref_name>  (119) 
Mu opioid receptor

>  <assay_chembl_id>  (119) 
CHEMBL753178

>  <standard_relation>  (119) 
=

>  <assay_description>  (119) 
In vitro binding affinity against cloned human Opioid receptor mu 1 expressed in HEK 293S cells

>  <published_relation>  (119) 
=

>  <standard_value>  (119) 
0.57

>  <qudt_units>  (119) 
http://www.openphacts.org/units/Nanomolar

>  <target_tax_id>  (119) 
9606

>  <bao_label>  (119) 
cell-based format

>  <published_units>  (119) 
nM

>  <pchembl_value>  (119) 
9.24

>  <published_type>  (119) 
IC50

>  <activity_comment>  (119) 
None

$$$$

     RDKit          

 24 28  0  0  0  0  0  0  0  0999 V2000
    0.0000    0.0000    0.0000 C   0  0  0  0  0  0  0  0  0  0  0  0
    0.0000    0.0000    0.0000 C   0  0  0  0  0  0  0  0  0  0  0  0
    0.0000    0.0000    0.0000 C   0  0  0  0  0  0  0  0  0  0  0  0
    0.0000    0.0000    0.0000 C   0  0  0  0  0  0  0  0  0  0  0  0
    0.0000    0.0000    0.0000 C   0  0  0  0  0  0  0  0  0  0  0  0
    0.0000    0.0000    0.0000 C   0  0  0  0  0  0  0  0  0  0  0  0
    0.0000    0.0000    0.0000 O   0  0  0  0  0  0  0  0  0  0  0  0
    0.0000    0.0000    0.0000 C   0  0  0  0  0  0  0  0  0  0  0  0
    0.0000    0.0000    0.0000 C   0  0  0  0  0  0  0  0  0  0  0  0
    0.0000    0.0000    0.0000 C   0  0  0  0  0  0  0  0  0  0  0  0
    0.0000    0.0000    0.0000 C   0  0  0  0  0  0  0  0  0  0  0  0
    0.0000    0.0000    0.0000 C   0  0  0  0  0  0  0  0  0  0  0  0
    0.0000    0.0000    0.0000 N   0  0  0  0  0  0  0  0  0  0  0  0
    0.0000    0.0000    0.0000 C   0  0  0  0  0  0  0  0  0  0  0  0
    0.0000    0.0000    0.0000 C   0  0  0  0  0  0  0  0  0  0  0  0
    0.0000    0.0000    0.0000 C   0  0  0  0  0  0  0  0  0  0  0  0
    0.0000    0.0000    0.0000 C   0  0  0  0  0  0  0  0  0  0  0  0
    0.0000    0.0000    0.0000 C   0  0  0  0  0  0  0  0  0  0  0  0
    0.0000    0.0000    0.0000 C   0  0  0  0  0  0  0  0  0  0  0  0
    0.0000    0.0000    0.0000 C   0  0  0  0  0  0  0  0  0  0  0  0
    0.0000    0.0000    0.0000 C   0  0  0  0  0  0  0  0  0  0  0  0
    0.0000    0.0000    0.0000 O   0  0  0  0  0  0  0  0  0  0  0  0
    0.0000    0.0000    0.0000 C   0  0  0  0  0  0  0  0  0  0  0  0
    0.0000    0.0000    0.0000 C   0  0  0  0  0  0  0  0  0  0  0  0
  1  2  1  0
  2  3  1  0
  3  4  1  0
  4  5  2  0
  5  6  1  0
  6  7  1  0
  6  8  2  0
  8  9  1  0
  9 10  2  0
 10 11  1  0
 11 12  1  0
 12 13  1  0
 13 14  1  0
 14 15  1  0
 15 16  1  0
 16 17  1  0
 12 18  1  0
 18 19  2  0
 19 20  1  0
 20 21  2  0
 21 22  1  0
 21 23  1  0
 23 24  2  0
 13  2  1  0
 24  3  1  0
 10  4  1  0
 17 15  1  0
 24 18  1  0
M  END
>  <pIC50>  (120) 
8.19

>  <ChEMBL_ID>  (120) 
CHEMBL3707082

>  <document_journal>  (120) 
J. Med. Chem.

>  <bao_endpoint>  (120) 
BAO_0000190

>  <potential_duplicate>  (120) 
False

>  <uo_units>  (120) 
UO_0000065

>  <canonical_smiles>  (120) 
C[C@@H]1[C@H]2c3cc(O)ccc3C[C@H](N1CC4CC4)c5ccc(O)cc25

>  <parent_molecule_chembl_id>  (120) 
CHEMBL3707082

>  <assay_type>  (120) 
B

>  <src_id>  (120) 
1

>  <ligand_efficiency>  (120) 
{u'le': u'0.47', u'bei': u'25.49', u'sei': u'18.75', u'lle': u'4.04'}

>  <standard_flag>  (120) 
True

>  <molecule_chembl_id>  (120) 
CHEMBL3707082

>  <target_organism>  (120) 
Homo sapiens

>  <standard_units>  (120) 
nM

>  <record_id>  (120) 
279763

>  <document_chembl_id>  (120) 
CHEMBL1145019

>  <bao_format>  (120) 
BAO_0000219

>  <data_validity_description>  (120) 
None

>  <activity_id>  (120) 
628310

>  <standard_type>  (120) 
IC50

>  <target_chembl_id>  (120) 
CHEMBL233

>  <data_validity_comment>  (120) 
None

>  <published_value>  (120) 
6.4

>  <document_year>  (120) 
2003

>  <target_pref_name>  (120) 
Mu opioid receptor

>  <assay_chembl_id>  (120) 
CHEMBL753178

>  <standard_relation>  (120) 
=

>  <assay_description>  (120) 
In vitro binding affinity against cloned human Opioid receptor mu 1 expressed in HEK 293S cells

>  <published_relation>  (120) 
=

>  <standard_value>  (120) 
6.4

>  <qudt_units>  (120) 
http://www.openphacts.org/units/Nanomolar

>  <target_tax_id>  (120) 
9606

>  <bao_label>  (120) 
cell-based format

>  <published_units>  (120) 
nM

>  <pchembl_value>  (120) 
8.19

>  <published_type>  (120) 
IC50

>  <activity_comment>  (120) 
None

$$$$

     RDKit          

 20 24  0  0  0  0  0  0  0  0999 V2000
    0.0000    0.0000    0.0000 C   0  0  0  0  0  0  0  0  0  0  0  0
    0.0000    0.0000    0.0000 C   0  0  0  0  0  0  0  0  0  0  0  0
    0.0000    0.0000    0.0000 C   0  0  0  0  0  0  0  0  0  0  0  0
    0.0000    0.0000    0.0000 C   0  0  0  0  0  0  0  0  0  0  0  0
    0.0000    0.0000    0.0000 C   0  0  0  0  0  0  0  0  0  0  0  0
    0.0000    0.0000    0.0000 C   0  0  0  0  0  0  0  0  0  0  0  0
    0.0000    0.0000    0.0000 C   0  0  0  0  0  0  0  0  0  0  0  0
    0.0000    0.0000    0.0000 C   0  0  0  0  0  0  0  0  0  0  0  0
    0.0000    0.0000    0.0000 C   0  0  0  0  0  0  0  0  0  0  0  0
    0.0000    0.0000    0.0000 C   0  0  0  0  0  0  0  0  0  0  0  0
    0.0000    0.0000    0.0000 C   0  0  0  0  0  0  0  0  0  0  0  0
    0.0000    0.0000    0.0000 C   0  0  0  0  0  0  0  0  0  0  0  0
    0.0000    0.0000    0.0000 N   0  0  0  0  0  0  0  0  0  0  0  0
    0.0000    0.0000    0.0000 C   0  0  0  0  0  0  0  0  0  0  0  0
    0.0000    0.0000    0.0000 C   0  0  0  0  0  0  0  0  0  0  0  0
    0.0000    0.0000    0.0000 C   0  0  0  0  0  0  0  0  0  0  0  0
    0.0000    0.0000    0.0000 C   0  0  0  0  0  0  0  0  0  0  0  0
    0.0000    0.0000    0.0000 C   0  0  0  0  0  0  0  0  0  0  0  0
    0.0000    0.0000    0.0000 C   0  0  0  0  0  0  0  0  0  0  0  0
    0.0000    0.0000    0.0000 C   0  0  0  0  0  0  0  0  0  0  0  0
  1  2  1  0
  2  3  1  0
  3  4  1  0
  4  5  1  0
  5  6  2  0
  6  7  1  0
  7  8  2  0
  8  9  1  0
  9 10  2  0
 10 11  1  0
 11 12  1  0
 12 13  1  0
 13 14  1  0
 12 15  1  0
 15 16  2  0
 16 17  1  0
 17 18  2  0
 18 19  1  0
 19 20  2  0
 14  1  1  0
 13  3  1  0
 20  4  1  0
 10  5  1  0
 20 15  1  0
M  END
>  <pIC50>  (121) 
7.23

>  <ChEMBL_ID>  (121) 
CHEMBL3707087

>  <document_journal>  (121) 
J. Med. Chem.

>  <bao_endpoint>  (121) 
BAO_0000190

>  <potential_duplicate>  (121) 
False

>  <uo_units>  (121) 
UO_0000065

>  <canonical_smiles>  (121) 
C1C[C@H]2[C@H]3c4ccccc4C[C@H](N2C1)c5ccccc35

>  <parent_molecule_chembl_id>  (121) 
CHEMBL3707087

>  <assay_type>  (121) 
B

>  <src_id>  (121) 
1

>  <ligand_efficiency>  (121) 
{u'le': u'0.49', u'bei': u'27.66', u'sei': u'223.12', u'lle': u'3.31'}

>  <standard_flag>  (121) 
True

>  <molecule_chembl_id>  (121) 
CHEMBL3707087

>  <target_organism>  (121) 
Homo sapiens

>  <standard_units>  (121) 
nM

>  <record_id>  (121) 
279794

>  <document_chembl_id>  (121) 
CHEMBL1145019

>  <bao_format>  (121) 
BAO_0000219

>  <data_validity_description>  (121) 
None

>  <activity_id>  (121) 
628314

>  <standard_type>  (121) 
IC50

>  <target_chembl_id>  (121) 
CHEMBL233

>  <data_validity_comment>  (121) 
None

>  <published_value>  (121) 
59

>  <document_year>  (121) 
2003

>  <target_pref_name>  (121) 
Mu opioid receptor

>  <assay_chembl_id>  (121) 
CHEMBL753178

>  <standard_relation>  (121) 
=

>  <assay_description>  (121) 
In vitro binding affinity against cloned human Opioid receptor mu 1 expressed in HEK 293S cells

>  <published_relation>  (121) 
=

>  <standard_value>  (121) 
59

>  <qudt_units>  (121) 
http://www.openphacts.org/units/Nanomolar

>  <target_tax_id>  (121) 
9606

>  <bao_label>  (121) 
cell-based format

>  <published_units>  (121) 
nM

>  <pchembl_value>  (121) 
7.23

>  <published_type>  (121) 
IC50

>  <activity_comment>  (121) 
None

$$$$

     RDKit          

 21 24  0  0  0  0  0  0  0  0999 V2000
    0.0000    0.0000    0.0000 C   0  0  0  0  0  0  0  0  0  0  0  0
    0.0000    0.0000    0.0000 C   0  0  0  0  0  0  0  0  0  0  0  0
    0.0000    0.0000    0.0000 C   0  0  0  0  0  0  0  0  0  0  0  0
    0.0000    0.0000    0.0000 C   0  0  0  0  0  0  0  0  0  0  0  0
    0.0000    0.0000    0.0000 C   0  0  0  0  0  0  0  0  0  0  0  0
    0.0000    0.0000    0.0000 C   0  0  0  0  0  0  0  0  0  0  0  0
    0.0000    0.0000    0.0000 C   0  0  0  0  0  0  0  0  0  0  0  0
    0.0000    0.0000    0.0000 C   0  0  0  0  0  0  0  0  0  0  0  0
    0.0000    0.0000    0.0000 C   0  0  0  0  0  0  0  0  0  0  0  0
    0.0000    0.0000    0.0000 C   0  0  0  0  0  0  0  0  0  0  0  0
    0.0000    0.0000    0.0000 C   0  0  0  0  0  0  0  0  0  0  0  0
    0.0000    0.0000    0.0000 C   0  0  0  0  0  0  0  0  0  0  0  0
    0.0000    0.0000    0.0000 C   0  0  0  0  0  0  0  0  0  0  0  0
    0.0000    0.0000    0.0000 N   0  0  0  0  0  0  0  0  0  0  0  0
    0.0000    0.0000    0.0000 C   0  0  0  0  0  0  0  0  0  0  0  0
    0.0000    0.0000    0.0000 C   0  0  0  0  0  0  0  0  0  0  0  0
    0.0000    0.0000    0.0000 C   0  0  0  0  0  0  0  0  0  0  0  0
    0.0000    0.0000    0.0000 C   0  0  0  0  0  0  0  0  0  0  0  0
    0.0000    0.0000    0.0000 C   0  0  0  0  0  0  0  0  0  0  0  0
    0.0000    0.0000    0.0000 C   0  0  0  0  0  0  0  0  0  0  0  0
    0.0000    0.0000    0.0000 C   0  0  0  0  0  0  0  0  0  0  0  0
  1  2  1  0
  2  3  1  0
  2  4  1  0
  4  5  1  0
  5  6  1  0
  6  7  2  0
  7  8  1  0
  8  9  2  0
  9 10  1  0
 10 11  2  0
 11 12  1  0
 12 13  1  0
 13 14  1  0
 14 15  1  0
 13 16  1  0
 16 17  2  0
 17 18  1  0
 18 19  2  0
 19 20  1  0
 20 21  2  0
 14  4  1  0
 21  5  1  0
 11  6  1  0
 21 16  1  0
M  END
>  <pIC50>  (122) 
6.16

>  <ChEMBL_ID>  (122) 
CHEMBL2112843

>  <document_journal>  (122) 
J. Med. Chem.

>  <bao_endpoint>  (122) 
BAO_0000190

>  <potential_duplicate>  (122) 
False

>  <uo_units>  (122) 
UO_0000065

>  <canonical_smiles>  (122) 
CC(C)[C@H]1[C@H]2c3ccccc3C[C@@H](N1C)c4ccccc24

>  <parent_molecule_chembl_id>  (122) 
CHEMBL2112843

>  <assay_type>  (122) 
B

>  <src_id>  (122) 
1

>  <ligand_efficiency>  (122) 
{u'le': u'0.4', u'bei': u'22.2', u'sei': u'190.06', u'lle': u'1.51'}

>  <standard_flag>  (122) 
True

>  <molecule_chembl_id>  (122) 
CHEMBL2112843

>  <target_organism>  (122) 
Homo sapiens

>  <standard_units>  (122) 
nM

>  <record_id>  (122) 
279788

>  <document_chembl_id>  (122) 
CHEMBL1145019

>  <bao_format>  (122) 
BAO_0000219

>  <data_validity_description>  (122) 
None

>  <activity_id>  (122) 
628318

>  <standard_type>  (122) 
IC50

>  <target_chembl_id>  (122) 
CHEMBL233

>  <data_validity_comment>  (122) 
None

>  <published_value>  (122) 
695

>  <document_year>  (122) 
2003

>  <target_pref_name>  (122) 
Mu opioid receptor

>  <assay_chembl_id>  (122) 
CHEMBL753178

>  <standard_relation>  (122) 
=

>  <assay_description>  (122) 
In vitro binding affinity against cloned human Opioid receptor mu 1 expressed in HEK 293S cells

>  <published_relation>  (122) 
=

>  <standard_value>  (122) 
695

>  <qudt_units>  (122) 
http://www.openphacts.org/units/Nanomolar

>  <target_tax_id>  (122) 
9606

>  <bao_label>  (122) 
cell-based format

>  <published_units>  (122) 
nM

>  <pchembl_value>  (122) 
6.16

>  <published_type>  (122) 
IC50

>  <activity_comment>  (122) 
None

$$$$

     RDKit          

 18 21  0  0  0  0  0  0  0  0999 V2000
    0.0000    0.0000    0.0000 C   0  0  0  0  0  0  0  0  0  0  0  0
    0.0000    0.0000    0.0000 C   0  0  0  0  0  0  0  0  0  0  0  0
    0.0000    0.0000    0.0000 N   0  0  0  0  0  0  0  0  0  0  0  0
    0.0000    0.0000    0.0000 C   0  0  0  0  0  0  0  0  0  0  0  0
    0.0000    0.0000    0.0000 C   0  0  0  0  0  0  0  0  0  0  0  0
    0.0000    0.0000    0.0000 C   0  0  0  0  0  0  0  0  0  0  0  0
    0.0000    0.0000    0.0000 C   0  0  0  0  0  0  0  0  0  0  0  0
    0.0000    0.0000    0.0000 C   0  0  0  0  0  0  0  0  0  0  0  0
    0.0000    0.0000    0.0000 C   0  0  0  0  0  0  0  0  0  0  0  0
    0.0000    0.0000    0.0000 C   0  0  0  0  0  0  0  0  0  0  0  0
    0.0000    0.0000    0.0000 C   0  0  0  0  0  0  0  0  0  0  0  0
    0.0000    0.0000    0.0000 C   0  0  0  0  0  0  0  0  0  0  0  0
    0.0000    0.0000    0.0000 C   0  0  0  0  0  0  0  0  0  0  0  0
    0.0000    0.0000    0.0000 C   0  0  0  0  0  0  0  0  0  0  0  0
    0.0000    0.0000    0.0000 C   0  0  0  0  0  0  0  0  0  0  0  0
    0.0000    0.0000    0.0000 C   0  0  0  0  0  0  0  0  0  0  0  0
    0.0000    0.0000    0.0000 C   0  0  0  0  0  0  0  0  0  0  0  0
    0.0000    0.0000    0.0000 C   0  0  0  0  0  0  0  0  0  0  0  0
  1  2  1  0
  2  3  1  0
  3  4  1  0
  4  5  1  0
  5  6  1  0
  6  7  2  0
  7  8  1  0
  8  9  2  0
  9 10  1  0
 10 11  2  0
 11 12  1  0
 12 13  1  0
 13 14  2  0
 14 15  1  0
 15 16  2  0
 16 17  1  0
 17 18  2  0
 12  2  1  0
 18  4  1  0
 11  6  1  0
 18 13  1  0
M  END
>  <pIC50>  (123) 
6.19

>  <ChEMBL_ID>  (123) 
CHEMBL2112844

>  <document_journal>  (123) 
J. Med. Chem.

>  <bao_endpoint>  (123) 
BAO_0000190

>  <potential_duplicate>  (123) 
False

>  <uo_units>  (123) 
UO_0000065

>  <canonical_smiles>  (123) 
C[C@H]1N[C@@H]2Cc3ccccc3[C@H]1c4ccccc24

>  <parent_molecule_chembl_id>  (123) 
CHEMBL2112844

>  <assay_type>  (123) 
B

>  <src_id>  (123) 
1

>  <ligand_efficiency>  (123) 
{u'le': u'0.47', u'bei': u'26.29', u'sei': u'51.43', u'lle': u'2.92'}

>  <standard_flag>  (123) 
True

>  <molecule_chembl_id>  (123) 
CHEMBL2112844

>  <target_organism>  (123) 
Homo sapiens

>  <standard_units>  (123) 
nM

>  <record_id>  (123) 
279757

>  <document_chembl_id>  (123) 
CHEMBL1145019

>  <bao_format>  (123) 
BAO_0000219

>  <data_validity_description>  (123) 
None

>  <activity_id>  (123) 
629691

>  <standard_type>  (123) 
IC50

>  <target_chembl_id>  (123) 
CHEMBL233

>  <data_validity_comment>  (123) 
None

>  <published_value>  (123) 
650

>  <document_year>  (123) 
2003

>  <target_pref_name>  (123) 
Mu opioid receptor

>  <assay_chembl_id>  (123) 
CHEMBL753178

>  <standard_relation>  (123) 
=

>  <assay_description>  (123) 
In vitro binding affinity against cloned human Opioid receptor mu 1 expressed in HEK 293S cells

>  <published_relation>  (123) 
=

>  <standard_value>  (123) 
650

>  <qudt_units>  (123) 
http://www.openphacts.org/units/Nanomolar

>  <target_tax_id>  (123) 
9606

>  <bao_label>  (123) 
cell-based format

>  <published_units>  (123) 
nM

>  <pchembl_value>  (123) 
6.19

>  <published_type>  (123) 
IC50

>  <activity_comment>  (123) 
None

$$$$

     RDKit          

 23 26  0  0  0  0  0  0  0  0999 V2000
    0.0000    0.0000    0.0000 C   0  0  0  0  0  0  0  0  0  0  0  0
    0.0000    0.0000    0.0000 O   0  0  0  0  0  0  0  0  0  0  0  0
    0.0000    0.0000    0.0000 C   0  0  0  0  0  0  0  0  0  0  0  0
    0.0000    0.0000    0.0000 C   0  0  0  0  0  0  0  0  0  0  0  0
    0.0000    0.0000    0.0000 C   0  0  0  0  0  0  0  0  0  0  0  0
    0.0000    0.0000    0.0000 C   0  0  0  0  0  0  0  0  0  0  0  0
    0.0000    0.0000    0.0000 C   0  0  0  0  0  0  0  0  0  0  0  0
    0.0000    0.0000    0.0000 C   0  0  0  0  0  0  0  0  0  0  0  0
    0.0000    0.0000    0.0000 N   0  0  0  0  0  0  0  0  0  0  0  0
    0.0000    0.0000    0.0000 C   0  0  0  0  0  0  0  0  0  0  0  0
    0.0000    0.0000    0.0000 C   0  0  0  0  0  0  0  0  0  0  0  0
    0.0000    0.0000    0.0000 C   0  0  0  0  0  0  0  0  0  0  0  0
    0.0000    0.0000    0.0000 C   0  0  0  0  0  0  0  0  0  0  0  0
    0.0000    0.0000    0.0000 C   0  0  0  0  0  0  0  0  0  0  0  0
    0.0000    0.0000    0.0000 C   0  0  0  0  0  0  0  0  0  0  0  0
    0.0000    0.0000    0.0000 C   0  0  0  0  0  0  0  0  0  0  0  0
    0.0000    0.0000    0.0000 C   0  0  0  0  0  0  0  0  0  0  0  0
    0.0000    0.0000    0.0000 C   0  0  0  0  0  0  0  0  0  0  0  0
    0.0000    0.0000    0.0000 O   0  0  0  0  0  0  0  0  0  0  0  0
    0.0000    0.0000    0.0000 C   0  0  0  0  0  0  0  0  0  0  0  0
    0.0000    0.0000    0.0000 C   0  0  0  0  0  0  0  0  0  0  0  0
    0.0000    0.0000    0.0000 C   0  0  0  0  0  0  0  0  0  0  0  0
    0.0000    0.0000    0.0000 C   0  0  0  0  0  0  0  0  0  0  0  0
  1  2  1  0
  2  3  1  0
  3  4  2  0
  4  5  1  0
  5  6  2  0
  6  7  1  0
  7  8  1  0
  8  9  1  0
  9 10  1  0
  9 11  1  0
 11 12  1  0
 11 13  1  0
 13 14  1  0
 14 15  2  0
 13 16  1  0
 16 17  2  0
 17 18  1  0
 18 19  1  0
 19 20  1  0
 18 21  2  0
 21 22  1  0
 22 23  2  0
 15  3  1  0
 14  6  1  0
 23  8  1  0
 23 16  1  0
M  END
>  <pIC50>  (124) 
6.38

>  <ChEMBL_ID>  (124) 
CHEMBL3707084

>  <document_journal>  (124) 
J. Med. Chem.

>  <bao_endpoint>  (124) 
BAO_0000190

>  <potential_duplicate>  (124) 
False

>  <uo_units>  (124) 
UO_0000065

>  <canonical_smiles>  (124) 
COc1ccc2C[C@@H]3N(C)[C@H](C)[C@@H](c2c1)c4cc(OC)ccc34

>  <parent_molecule_chembl_id>  (124) 
CHEMBL3707084

>  <assay_type>  (124) 
B

>  <src_id>  (124) 
1

>  <ligand_efficiency>  (124) 
{u'le': u'0.38', u'bei': u'20.61', u'sei': u'29.39', u'lle': u'2.6'}

>  <standard_flag>  (124) 
True

>  <molecule_chembl_id>  (124) 
CHEMBL3707084

>  <target_organism>  (124) 
Homo sapiens

>  <standard_units>  (124) 
nM

>  <record_id>  (124) 
279766

>  <document_chembl_id>  (124) 
CHEMBL1145019

>  <bao_format>  (124) 
BAO_0000219

>  <data_validity_description>  (124) 
None

>  <activity_id>  (124) 
629695

>  <standard_type>  (124) 
IC50

>  <target_chembl_id>  (124) 
CHEMBL233

>  <data_validity_comment>  (124) 
None

>  <published_value>  (124) 
420

>  <document_year>  (124) 
2003

>  <target_pref_name>  (124) 
Mu opioid receptor

>  <assay_chembl_id>  (124) 
CHEMBL753178

>  <standard_relation>  (124) 
=

>  <assay_description>  (124) 
In vitro binding affinity against cloned human Opioid receptor mu 1 expressed in HEK 293S cells

>  <published_relation>  (124) 
=

>  <standard_value>  (124) 
420

>  <qudt_units>  (124) 
http://www.openphacts.org/units/Nanomolar

>  <target_tax_id>  (124) 
9606

>  <bao_label>  (124) 
cell-based format

>  <published_units>  (124) 
nM

>  <pchembl_value>  (124) 
6.38

>  <published_type>  (124) 
IC50

>  <activity_comment>  (124) 
None

$$$$

     RDKit          

 26 30  0  0  0  0  0  0  0  0999 V2000
    0.0000    0.0000    0.0000 C   0  0  0  0  0  0  0  0  0  0  0  0
    0.0000    0.0000    0.0000 O   0  0  0  0  0  0  0  0  0  0  0  0
    0.0000    0.0000    0.0000 C   0  0  0  0  0  0  0  0  0  0  0  0
    0.0000    0.0000    0.0000 C   0  0  0  0  0  0  0  0  0  0  0  0
    0.0000    0.0000    0.0000 C   0  0  0  0  0  0  0  0  0  0  0  0
    0.0000    0.0000    0.0000 C   0  0  0  0  0  0  0  0  0  0  0  0
    0.0000    0.0000    0.0000 C   0  0  0  0  0  0  0  0  0  0  0  0
    0.0000    0.0000    0.0000 C   0  0  0  0  0  0  0  0  0  0  0  0
    0.0000    0.0000    0.0000 N   0  0  0  0  0  0  0  0  0  0  0  0
    0.0000    0.0000    0.0000 C   0  0  0  0  0  0  0  0  0  0  0  0
    0.0000    0.0000    0.0000 C   0  0  0  0  0  0  0  0  0  0  0  0
    0.0000    0.0000    0.0000 C   0  0  0  0  0  0  0  0  0  0  0  0
    0.0000    0.0000    0.0000 C   0  0  0  0  0  0  0  0  0  0  0  0
    0.0000    0.0000    0.0000 C   0  0  0  0  0  0  0  0  0  0  0  0
    0.0000    0.0000    0.0000 C   0  0  0  0  0  0  0  0  0  0  0  0
    0.0000    0.0000    0.0000 C   0  0  0  0  0  0  0  0  0  0  0  0
    0.0000    0.0000    0.0000 C   0  0  0  0  0  0  0  0  0  0  0  0
    0.0000    0.0000    0.0000 C   0  0  0  0  0  0  0  0  0  0  0  0
    0.0000    0.0000    0.0000 C   0  0  0  0  0  0  0  0  0  0  0  0
    0.0000    0.0000    0.0000 C   0  0  0  0  0  0  0  0  0  0  0  0
    0.0000    0.0000    0.0000 C   0  0  0  0  0  0  0  0  0  0  0  0
    0.0000    0.0000    0.0000 O   0  0  0  0  0  0  0  0  0  0  0  0
    0.0000    0.0000    0.0000 C   0  0  0  0  0  0  0  0  0  0  0  0
    0.0000    0.0000    0.0000 C   0  0  0  0  0  0  0  0  0  0  0  0
    0.0000    0.0000    0.0000 C   0  0  0  0  0  0  0  0  0  0  0  0
    0.0000    0.0000    0.0000 C   0  0  0  0  0  0  0  0  0  0  0  0
  1  2  1  0
  2  3  1  0
  3  4  2  0
  4  5  1  0
  5  6  2  0
  6  7  1  0
  7  8  1  0
  8  9  1  0
  9 10  1  0
 10 11  1  0
 11 12  1  0
 12 13  1  0
  9 14  1  0
 14 15  1  0
 14 16  1  0
 16 17  1  0
 17 18  2  0
 16 19  1  0
 19 20  2  0
 20 21  1  0
 21 22  1  0
 22 23  1  0
 21 24  2  0
 24 25  1  0
 25 26  2  0
 18  3  1  0
 17  6  1  0
 26  8  1  0
 13 11  1  0
 26 19  1  0
M  END
>  <pIC50>  (125) 
5.99

>  <ChEMBL_ID>  (125) 
CHEMBL3707101

>  <document_journal>  (125) 
J. Med. Chem.

>  <bao_endpoint>  (125) 
BAO_0000190

>  <potential_duplicate>  (125) 
False

>  <uo_units>  (125) 
UO_0000065

>  <canonical_smiles>  (125) 
COc1ccc2C[C@@H]3N(CC4CC4)[C@H](C)[C@@H](c2c1)c5cc(OC)ccc35

>  <parent_molecule_chembl_id>  (125) 
CHEMBL3707101

>  <assay_type>  (125) 
B

>  <src_id>  (125) 
1

>  <ligand_efficiency>  (125) 
{u'le': u'0.31', u'bei': u'17.13', u'sei': u'27.59', u'lle': u'1.39'}

>  <standard_flag>  (125) 
True

>  <molecule_chembl_id>  (125) 
CHEMBL3707101

>  <target_organism>  (125) 
Homo sapiens

>  <standard_units>  (125) 
nM

>  <record_id>  (125) 
279765

>  <document_chembl_id>  (125) 
CHEMBL1145019

>  <bao_format>  (125) 
BAO_0000219

>  <data_validity_description>  (125) 
None

>  <activity_id>  (125) 
629699

>  <standard_type>  (125) 
IC50

>  <target_chembl_id>  (125) 
CHEMBL233

>  <data_validity_comment>  (125) 
None

>  <published_value>  (125) 
1030

>  <document_year>  (125) 
2003

>  <target_pref_name>  (125) 
Mu opioid receptor

>  <assay_chembl_id>  (125) 
CHEMBL753178

>  <standard_relation>  (125) 
=

>  <assay_description>  (125) 
In vitro binding affinity against cloned human Opioid receptor mu 1 expressed in HEK 293S cells

>  <published_relation>  (125) 
=

>  <standard_value>  (125) 
1030

>  <qudt_units>  (125) 
http://www.openphacts.org/units/Nanomolar

>  <target_tax_id>  (125) 
9606

>  <bao_label>  (125) 
cell-based format

>  <published_units>  (125) 
nM

>  <pchembl_value>  (125) 
5.99

>  <published_type>  (125) 
IC50

>  <activity_comment>  (125) 
None

$$$$

     RDKit          

 22 26  0  0  0  0  0  0  0  0999 V2000
    0.0000    0.0000    0.0000 O   0  0  0  0  0  0  0  0  0  0  0  0
    0.0000    0.0000    0.0000 C   0  0  0  0  0  0  0  0  0  0  0  0
    0.0000    0.0000    0.0000 C   0  0  0  0  0  0  0  0  0  0  0  0
    0.0000    0.0000    0.0000 C   0  0  0  0  0  0  0  0  0  0  0  0
    0.0000    0.0000    0.0000 C   0  0  0  0  0  0  0  0  0  0  0  0
    0.0000    0.0000    0.0000 C   0  0  0  0  0  0  0  0  0  0  0  0
    0.0000    0.0000    0.0000 C   0  0  0  0  0  0  0  0  0  0  0  0
    0.0000    0.0000    0.0000 N   0  0  0  0  0  0  0  0  0  0  0  0
    0.0000    0.0000    0.0000 C   0  0  0  0  0  0  0  0  0  0  0  0
    0.0000    0.0000    0.0000 C   0  0  0  0  0  0  0  0  0  0  0  0
    0.0000    0.0000    0.0000 C   0  0  0  0  0  0  0  0  0  0  0  0
    0.0000    0.0000    0.0000 C   0  0  0  0  0  0  0  0  0  0  0  0
    0.0000    0.0000    0.0000 C   0  0  0  0  0  0  0  0  0  0  0  0
    0.0000    0.0000    0.0000 C   0  0  0  0  0  0  0  0  0  0  0  0
    0.0000    0.0000    0.0000 C   0  0  0  0  0  0  0  0  0  0  0  0
    0.0000    0.0000    0.0000 C   0  0  0  0  0  0  0  0  0  0  0  0
    0.0000    0.0000    0.0000 C   0  0  0  0  0  0  0  0  0  0  0  0
    0.0000    0.0000    0.0000 C   0  0  0  0  0  0  0  0  0  0  0  0
    0.0000    0.0000    0.0000 O   0  0  0  0  0  0  0  0  0  0  0  0
    0.0000    0.0000    0.0000 C   0  0  0  0  0  0  0  0  0  0  0  0
    0.0000    0.0000    0.0000 C   0  0  0  0  0  0  0  0  0  0  0  0
    0.0000    0.0000    0.0000 C   0  0  0  0  0  0  0  0  0  0  0  0
  1  2  1  0
  2  3  2  0
  3  4  1  0
  4  5  2  0
  5  6  1  0
  6  7  1  0
  7  8  1  0
  8  9  1  0
  9 10  1  0
 10 11  1  0
 11 12  1  0
 12 13  1  0
 13 14  1  0
 14 15  2  0
 13 16  1  0
 16 17  2  0
 17 18  1  0
 18 19  1  0
 18 20  2  0
 20 21  1  0
 21 22  2  0
 15  2  1  0
 14  5  1  0
 22  7  1  0
 12  8  1  0
 22 16  1  0
M  END
>  <pIC50>  (126) 
6.89

>  <ChEMBL_ID>  (126) 
CHEMBL3707075

>  <document_journal>  (126) 
J. Med. Chem.

>  <bao_endpoint>  (126) 
BAO_0000190

>  <potential_duplicate>  (126) 
False

>  <uo_units>  (126) 
UO_0000065

>  <canonical_smiles>  (126) 
Oc1ccc2C[C@@H]3N4CCC[C@H]4[C@@H](c2c1)c5cc(O)ccc35

>  <parent_molecule_chembl_id>  (126) 
CHEMBL3707075

>  <assay_type>  (126) 
B

>  <src_id>  (126) 
1

>  <ligand_efficiency>  (126) 
{u'le': u'0.43', u'bei': u'23.47', u'sei': u'15.76', u'lle': u'3.45'}

>  <standard_flag>  (126) 
True

>  <molecule_chembl_id>  (126) 
CHEMBL3707075

>  <target_organism>  (126) 
Homo sapiens

>  <standard_units>  (126) 
nM

>  <record_id>  (126) 
279792

>  <document_chembl_id>  (126) 
CHEMBL1145019

>  <bao_format>  (126) 
BAO_0000219

>  <data_validity_description>  (126) 
None

>  <activity_id>  (126) 
630935

>  <standard_type>  (126) 
IC50

>  <target_chembl_id>  (126) 
CHEMBL233

>  <data_validity_comment>  (126) 
None

>  <published_value>  (126) 
130

>  <document_year>  (126) 
2003

>  <target_pref_name>  (126) 
Mu opioid receptor

>  <assay_chembl_id>  (126) 
CHEMBL753178

>  <standard_relation>  (126) 
=

>  <assay_description>  (126) 
In vitro binding affinity against cloned human Opioid receptor mu 1 expressed in HEK 293S cells

>  <published_relation>  (126) 
=

>  <standard_value>  (126) 
130

>  <qudt_units>  (126) 
http://www.openphacts.org/units/Nanomolar

>  <target_tax_id>  (126) 
9606

>  <bao_label>  (126) 
cell-based format

>  <published_units>  (126) 
nM

>  <pchembl_value>  (126) 
6.89

>  <published_type>  (126) 
IC50

>  <activity_comment>  (126) 
None

$$$$

     RDKit          

 24 28  0  0  0  0  0  0  0  0999 V2000
    0.0000    0.0000    0.0000 C   0  0  0  0  0  0  0  0  0  0  0  0
    0.0000    0.0000    0.0000 C   0  0  0  0  0  0  0  0  0  0  0  0
    0.0000    0.0000    0.0000 C   0  0  0  0  0  0  0  0  0  0  0  0
    0.0000    0.0000    0.0000 C   0  0  0  0  0  0  0  0  0  0  0  0
    0.0000    0.0000    0.0000 C   0  0  0  0  0  0  0  0  0  0  0  0
    0.0000    0.0000    0.0000 C   0  0  0  0  0  0  0  0  0  0  0  0
    0.0000    0.0000    0.0000 Br  0  0  0  0  0  0  0  0  0  0  0  0
    0.0000    0.0000    0.0000 C   0  0  0  0  0  0  0  0  0  0  0  0
    0.0000    0.0000    0.0000 C   0  0  0  0  0  0  0  0  0  0  0  0
    0.0000    0.0000    0.0000 C   0  0  0  0  0  0  0  0  0  0  0  0
    0.0000    0.0000    0.0000 C   0  0  0  0  0  0  0  0  0  0  0  0
    0.0000    0.0000    0.0000 C   0  0  0  0  0  0  0  0  0  0  0  0
    0.0000    0.0000    0.0000 N   0  0  0  0  0  0  0  0  0  0  0  0
    0.0000    0.0000    0.0000 C   0  0  0  0  0  0  0  0  0  0  0  0
    0.0000    0.0000    0.0000 C   0  0  0  0  0  0  0  0  0  0  0  0
    0.0000    0.0000    0.0000 C   0  0  0  0  0  0  0  0  0  0  0  0
    0.0000    0.0000    0.0000 C   0  0  0  0  0  0  0  0  0  0  0  0
    0.0000    0.0000    0.0000 C   0  0  0  0  0  0  0  0  0  0  0  0
    0.0000    0.0000    0.0000 C   0  0  0  0  0  0  0  0  0  0  0  0
    0.0000    0.0000    0.0000 C   0  0  0  0  0  0  0  0  0  0  0  0
    0.0000    0.0000    0.0000 C   0  0  0  0  0  0  0  0  0  0  0  0
    0.0000    0.0000    0.0000 Br  0  0  0  0  0  0  0  0  0  0  0  0
    0.0000    0.0000    0.0000 C   0  0  0  0  0  0  0  0  0  0  0  0
    0.0000    0.0000    0.0000 C   0  0  0  0  0  0  0  0  0  0  0  0
  1  2  1  0
  2  3  1  0
  3  4  1  0
  4  5  2  0
  5  6  1  0
  6  7  1  0
  6  8  2  0
  8  9  1  0
  9 10  2  0
 10 11  1  0
 11 12  1  0
 12 13  1  0
 13 14  1  0
 14 15  1  0
 15 16  1  0
 16 17  1  0
 12 18  1  0
 18 19  2  0
 19 20  1  0
 20 21  2  0
 21 22  1  0
 21 23  1  0
 23 24  2  0
 13  2  1  0
 24  3  1  0
 10  4  1  0
 17 15  1  0
 24 18  1  0
M  END
>  <pIC50>  (127) 
5.69

>  <ChEMBL_ID>  (127) 
CHEMBL3707085

>  <document_journal>  (127) 
J. Med. Chem.

>  <bao_endpoint>  (127) 
BAO_0000190

>  <potential_duplicate>  (127) 
False

>  <uo_units>  (127) 
UO_0000065

>  <canonical_smiles>  (127) 
C[C@@H]1[C@H]2c3cc(Br)ccc3C[C@H](N1CC4CC4)c5ccc(Br)cc25

>  <parent_molecule_chembl_id>  (127) 
CHEMBL3707085

>  <assay_type>  (127) 
B

>  <src_id>  (127) 
1

>  <ligand_efficiency>  (127) 
{u'le': u'0.32', u'bei': u'12.72', u'sei': u'175.56', u'lle': u'-0.44'}

>  <standard_flag>  (127) 
True

>  <molecule_chembl_id>  (127) 
CHEMBL3707085

>  <target_organism>  (127) 
Homo sapiens

>  <standard_units>  (127) 
nM

>  <record_id>  (127) 
279767

>  <document_chembl_id>  (127) 
CHEMBL1145019

>  <bao_format>  (127) 
BAO_0000219

>  <data_validity_description>  (127) 
None

>  <activity_id>  (127) 
632237

>  <standard_type>  (127) 
IC50

>  <target_chembl_id>  (127) 
CHEMBL233

>  <data_validity_comment>  (127) 
None

>  <published_value>  (127) 
2050

>  <document_year>  (127) 
2003

>  <target_pref_name>  (127) 
Mu opioid receptor

>  <assay_chembl_id>  (127) 
CHEMBL753178

>  <standard_relation>  (127) 
=

>  <assay_description>  (127) 
In vitro binding affinity against cloned human Opioid receptor mu 1 expressed in HEK 293S cells

>  <published_relation>  (127) 
=

>  <standard_value>  (127) 
2050

>  <qudt_units>  (127) 
http://www.openphacts.org/units/Nanomolar

>  <target_tax_id>  (127) 
9606

>  <bao_label>  (127) 
cell-based format

>  <published_units>  (127) 
nM

>  <pchembl_value>  (127) 
5.69

>  <published_type>  (127) 
IC50

>  <activity_comment>  (127) 
None

$$$$

     RDKit          

 34 35  0  0  0  0  0  0  0  0999 V2000
    0.0000    0.0000    0.0000 C   0  0  0  0  0  0  0  0  0  0  0  0
    0.0000    0.0000    0.0000 C   0  0  0  0  0  0  0  0  0  0  0  0
    0.0000    0.0000    0.0000 N   0  0  0  0  0  0  0  0  0  0  0  0
    0.0000    0.0000    0.0000 C   0  0  0  0  0  0  0  0  0  0  0  0
    0.0000    0.0000    0.0000 O   0  0  0  0  0  0  0  0  0  0  0  0
    0.0000    0.0000    0.0000 C   0  0  0  0  0  0  0  0  0  0  0  0
    0.0000    0.0000    0.0000 N   0  0  0  0  0  0  0  0  0  0  0  0
    0.0000    0.0000    0.0000 C   0  0  0  0  0  0  0  0  0  0  0  0
    0.0000    0.0000    0.0000 C   0  0  0  0  0  0  0  0  0  0  0  0
    0.0000    0.0000    0.0000 C   0  0  0  0  0  0  0  0  0  0  0  0
    0.0000    0.0000    0.0000 C   0  0  0  0  0  0  0  0  0  0  0  0
    0.0000    0.0000    0.0000 C   0  0  0  0  0  0  0  0  0  0  0  0
    0.0000    0.0000    0.0000 O   0  0  0  0  0  0  0  0  0  0  0  0
    0.0000    0.0000    0.0000 C   0  0  0  0  0  0  0  0  0  0  0  0
    0.0000    0.0000    0.0000 C   0  0  0  0  0  0  0  0  0  0  0  0
    0.0000    0.0000    0.0000 C   0  0  0  0  0  0  0  0  0  0  0  0
    0.0000    0.0000    0.0000 O   0  0  0  0  0  0  0  0  0  0  0  0
    0.0000    0.0000    0.0000 N   0  0  0  0  0  0  0  0  0  0  0  0
    0.0000    0.0000    0.0000 C   0  0  0  0  0  0  0  0  0  0  0  0
    0.0000    0.0000    0.0000 C   0  0  0  0  0  0  0  0  0  0  0  0
    0.0000    0.0000    0.0000 O   0  0  0  0  0  0  0  0  0  0  0  0
    0.0000    0.0000    0.0000 N   0  0  0  0  0  0  0  0  0  0  0  0
    0.0000    0.0000    0.0000 C   0  0  0  0  0  0  0  0  0  0  0  0
    0.0000    0.0000    0.0000 C   0  0  0  0  0  0  0  0  0  0  0  0
    0.0000    0.0000    0.0000 C   0  0  0  0  0  0  0  0  0  0  0  0
    0.0000    0.0000    0.0000 C   0  0  0  0  0  0  0  0  0  0  0  0
    0.0000    0.0000    0.0000 C   0  0  0  0  0  0  0  0  0  0  0  0
    0.0000    0.0000    0.0000 C   0  0  0  0  0  0  0  0  0  0  0  0
    0.0000    0.0000    0.0000 C   0  0  0  0  0  0  0  0  0  0  0  0
    0.0000    0.0000    0.0000 C   0  0  0  0  0  0  0  0  0  0  0  0
    0.0000    0.0000    0.0000 C   0  0  0  0  0  0  0  0  0  0  0  0
    0.0000    0.0000    0.0000 O   0  0  0  0  0  0  0  0  0  0  0  0
    0.0000    0.0000    0.0000 N   0  0  0  0  0  0  0  0  0  0  0  0
    0.0000    0.0000    0.0000 N   0  0  0  0  0  0  0  0  0  0  0  0
  1  2  1  0
  2  3  1  0
  3  4  1  0
  4  5  2  0
  4  6  1  0
  6  7  1  0
  6  8  1  0
  8  9  1  0
  9 10  2  0
 10 11  1  0
 11 12  2  0
 12 13  1  0
 12 14  1  0
 14 15  2  0
  2 16  1  0
 16 17  2  0
 16 18  1  0
 18 19  1  0
 19 20  1  0
 20 21  2  0
 20 22  1  0
 22 23  1  0
 23 24  1  0
 24 25  1  0
 25 26  2  0
 26 27  1  0
 27 28  2  0
 28 29  1  0
 29 30  2  0
 23 31  1  0
 31 32  2  0
 31 33  1  0
 33 34  1  0
 15  9  1  0
 30 25  1  0
M  END
>  <pIC50>  (128) 
8.33

>  <ChEMBL_ID>  (128) 
CHEMBL91760

>  <document_journal>  (128) 
Bioorg. Med. Chem. Lett.

>  <bao_endpoint>  (128) 
BAO_0000190

>  <potential_duplicate>  (128) 
False

>  <uo_units>  (128) 
UO_0000065

>  <canonical_smiles>  (128) 
C[C@@H](NC(=O)[C@@H](N)Cc1ccc(O)cc1)C(=O)NCC(=O)N[C@@H](Cc2ccccc2)C(=O)NN

>  <parent_molecule_chembl_id>  (128) 
CHEMBL91760

>  <assay_type>  (128) 
B

>  <src_id>  (128) 
1

>  <ligand_efficiency>  (128) 
{u'le': u'0.33', u'bei': u'17.7', u'sei': u'4.41', u'lle': u'9.11'}

>  <standard_flag>  (128) 
True

>  <molecule_chembl_id>  (128) 
CHEMBL91760

>  <target_organism>  (128) 
Homo sapiens

>  <standard_units>  (128) 
nM

>  <record_id>  (128) 
171940

>  <document_chembl_id>  (128) 
CHEMBL1131989

>  <bao_format>  (128) 
BAO_0000357

>  <data_validity_description>  (128) 
None

>  <activity_id>  (128) 
715657

>  <standard_type>  (128) 
IC50

>  <target_chembl_id>  (128) 
CHEMBL233

>  <data_validity_comment>  (128) 
None

>  <published_value>  (128) 
4.7

>  <document_year>  (128) 
1999

>  <target_pref_name>  (128) 
Mu opioid receptor

>  <assay_chembl_id>  (128) 
CHEMBL744603

>  <standard_relation>  (128) 
=

>  <assay_description>  (128) 
In vitro binding affinity towards mu opioid receptors was determined using [3H][p-Cl-Phe]- 4] DPDPE or [3H]deltorphin II

>  <published_relation>  (128) 
=

>  <standard_value>  (128) 
4.7

>  <qudt_units>  (128) 
http://www.openphacts.org/units/Nanomolar

>  <target_tax_id>  (128) 
9606

>  <bao_label>  (128) 
single protein format

>  <published_units>  (128) 
nM

>  <pchembl_value>  (128) 
8.33

>  <published_type>  (128) 
IC50

>  <activity_comment>  (128) 
None

$$$$

     RDKit          

 48 51  0  0  0  0  0  0  0  0999 V2000
    0.0000    0.0000    0.0000 C   0  0  0  0  0  0  0  0  0  0  0  0
    0.0000    0.0000    0.0000 C   0  0  0  0  0  0  0  0  0  0  0  0
    0.0000    0.0000    0.0000 N   0  0  0  0  0  0  0  0  0  0  0  0
    0.0000    0.0000    0.0000 C   0  0  0  0  0  0  0  0  0  0  0  0
    0.0000    0.0000    0.0000 O   0  0  0  0  0  0  0  0  0  0  0  0
    0.0000    0.0000    0.0000 C   0  0  0  0  0  0  0  0  0  0  0  0
    0.0000    0.0000    0.0000 N   0  0  0  0  0  0  0  0  0  0  0  0
    0.0000    0.0000    0.0000 C   0  0  0  0  0  0  0  0  0  0  0  0
    0.0000    0.0000    0.0000 C   0  0  0  0  0  0  0  0  0  0  0  0
    0.0000    0.0000    0.0000 C   0  0  0  0  0  0  0  0  0  0  0  0
    0.0000    0.0000    0.0000 C   0  0  0  0  0  0  0  0  0  0  0  0
    0.0000    0.0000    0.0000 C   0  0  0  0  0  0  0  0  0  0  0  0
    0.0000    0.0000    0.0000 O   0  0  0  0  0  0  0  0  0  0  0  0
    0.0000    0.0000    0.0000 C   0  0  0  0  0  0  0  0  0  0  0  0
    0.0000    0.0000    0.0000 C   0  0  0  0  0  0  0  0  0  0  0  0
    0.0000    0.0000    0.0000 C   0  0  0  0  0  0  0  0  0  0  0  0
    0.0000    0.0000    0.0000 O   0  0  0  0  0  0  0  0  0  0  0  0
    0.0000    0.0000    0.0000 N   0  0  0  0  0  0  0  0  0  0  0  0
    0.0000    0.0000    0.0000 C   0  0  0  0  0  0  0  0  0  0  0  0
    0.0000    0.0000    0.0000 C   0  0  0  0  0  0  0  0  0  0  0  0
    0.0000    0.0000    0.0000 O   0  0  0  0  0  0  0  0  0  0  0  0
    0.0000    0.0000    0.0000 N   0  0  0  0  0  0  0  0  0  0  0  0
    0.0000    0.0000    0.0000 C   0  0  0  0  0  0  0  0  0  0  0  0
    0.0000    0.0000    0.0000 C   0  0  0  0  0  0  0  0  0  0  0  0
    0.0000    0.0000    0.0000 C   0  0  0  0  0  0  0  0  0  0  0  0
    0.0000    0.0000    0.0000 C   0  0  0  0  0  0  0  0  0  0  0  0
    0.0000    0.0000    0.0000 N   0  0  0  0  0  0  0  0  0  0  0  0
    0.0000    0.0000    0.0000 C   0  0  0  0  0  0  0  0  0  0  0  0
    0.0000    0.0000    0.0000 C   0  0  0  0  0  0  0  0  0  0  0  0
    0.0000    0.0000    0.0000 C   0  0  0  0  0  0  0  0  0  0  0  0
    0.0000    0.0000    0.0000 C   0  0  0  0  0  0  0  0  0  0  0  0
    0.0000    0.0000    0.0000 C   0  0  0  0  0  0  0  0  0  0  0  0
    0.0000    0.0000    0.0000 C   0  0  0  0  0  0  0  0  0  0  0  0
    0.0000    0.0000    0.0000 C   0  0  0  0  0  0  0  0  0  0  0  0
    0.0000    0.0000    0.0000 O   0  0  0  0  0  0  0  0  0  0  0  0
    0.0000    0.0000    0.0000 N   0  0  0  0  0  0  0  0  0  0  0  0
    0.0000    0.0000    0.0000 N   0  0  0  0  0  0  0  0  0  0  0  0
    0.0000    0.0000    0.0000 C   0  0  0  0  0  0  0  0  0  0  0  0
    0.0000    0.0000    0.0000 O   0  0  0  0  0  0  0  0  0  0  0  0
    0.0000    0.0000    0.0000 C   0  0  0  0  0  0  0  0  0  0  0  0
    0.0000    0.0000    0.0000 N   0  0  0  0  0  0  0  0  0  0  0  0
    0.0000    0.0000    0.0000 C   0  0  0  0  0  0  0  0  0  0  0  0
    0.0000    0.0000    0.0000 C   0  0  0  0  0  0  0  0  0  0  0  0
    0.0000    0.0000    0.0000 C   0  0  0  0  0  0  0  0  0  0  0  0
    0.0000    0.0000    0.0000 C   0  0  0  0  0  0  0  0  0  0  0  0
    0.0000    0.0000    0.0000 C   0  0  0  0  0  0  0  0  0  0  0  0
    0.0000    0.0000    0.0000 C   0  0  0  0  0  0  0  0  0  0  0  0
    0.0000    0.0000    0.0000 C   0  0  0  0  0  0  0  0  0  0  0  0
  1  2  1  0
  2  3  1  0
  3  4  1  0
  4  5  2  0
  4  6  1  0
  6  7  1  0
  6  8  1  0
  8  9  1  0
  9 10  2  0
 10 11  1  0
 11 12  2  0
 12 13  1  0
 12 14  1  0
 14 15  2  0
  2 16  1  0
 16 17  2  0
 16 18  1  0
 18 19  1  0
 19 20  1  0
 20 21  2  0
 20 22  1  0
 22 23  1  0
 23 24  1  0
 24 25  1  0
 25 26  2  0
 26 27  1  0
 27 28  1  0
 28 29  2  0
 29 30  1  0
 30 31  2  0
 31 32  1  0
 32 33  2  0
 23 34  1  0
 34 35  2  0
 34 36  1  0
 36 37  1  0
 37 38  1  0
 38 39  2  0
 38 40  1  0
 40 41  1  0
 40 42  1  0
 42 43  1  0
 43 44  2  0
 44 45  1  0
 45 46  2  0
 46 47  1  0
 47 48  2  0
 15  9  1  0
 33 25  1  0
 33 28  1  0
 48 43  1  0
M  END
>  <pIC50>  (129) 
8.08

>  <ChEMBL_ID>  (129) 
CHEMBL319822

>  <document_journal>  (129) 
Bioorg. Med. Chem. Lett.

>  <bao_endpoint>  (129) 
BAO_0000190

>  <potential_duplicate>  (129) 
False

>  <uo_units>  (129) 
UO_0000065

>  <canonical_smiles>  (129) 
C[C@@H](NC(=O)[C@@H](N)Cc1ccc(O)cc1)C(=O)NCC(=O)N[C@@H](Cc2c[nH]c3ccccc23)C(=O)NNC(=O)[C@H](N)Cc4ccccc4

>  <parent_molecule_chembl_id>  (129) 
CHEMBL319822

>  <assay_type>  (129) 
B

>  <src_id>  (129) 
1

>  <ligand_efficiency>  (129) 
{u'le': u'0.23', u'bei': u'12.3', u'sei': u'3.46', u'lle': u'7.62'}

>  <standard_flag>  (129) 
True

>  <molecule_chembl_id>  (129) 
CHEMBL319822

>  <target_organism>  (129) 
Homo sapiens

>  <standard_units>  (129) 
nM

>  <record_id>  (129) 
171943

>  <document_chembl_id>  (129) 
CHEMBL1131989

>  <bao_format>  (129) 
BAO_0000357

>  <data_validity_description>  (129) 
None

>  <activity_id>  (129) 
716897

>  <standard_type>  (129) 
IC50

>  <target_chembl_id>  (129) 
CHEMBL233

>  <data_validity_comment>  (129) 
None

>  <published_value>  (129) 
8.3

>  <document_year>  (129) 
1999

>  <target_pref_name>  (129) 
Mu opioid receptor

>  <assay_chembl_id>  (129) 
CHEMBL744603

>  <standard_relation>  (129) 
=

>  <assay_description>  (129) 
In vitro binding affinity towards mu opioid receptors was determined using [3H][p-Cl-Phe]- 4] DPDPE or [3H]deltorphin II

>  <published_relation>  (129) 
=

>  <standard_value>  (129) 
8.3

>  <qudt_units>  (129) 
http://www.openphacts.org/units/Nanomolar

>  <target_tax_id>  (129) 
9606

>  <bao_label>  (129) 
single protein format

>  <published_units>  (129) 
nM

>  <pchembl_value>  (129) 
8.08

>  <published_type>  (129) 
IC50

>  <activity_comment>  (129) 
None

$$$$

     RDKit          

 60 69  0  0  0  0  0  0  0  0999 V2000
    0.0000    0.0000    0.0000 O   0  0  0  0  0  0  0  0  0  0  0  0
    0.0000    0.0000    0.0000 C   0  0  0  0  0  0  0  0  0  0  0  0
    0.0000    0.0000    0.0000 C   0  0  0  0  0  0  0  0  0  0  0  0
    0.0000    0.0000    0.0000 C   0  0  0  0  0  0  0  0  0  0  0  0
    0.0000    0.0000    0.0000 C   0  0  0  0  0  0  0  0  0  0  0  0
    0.0000    0.0000    0.0000 C   0  0  0  0  0  0  0  0  0  0  0  0
    0.0000    0.0000    0.0000 C   0  0  0  0  0  0  0  0  0  0  0  0
    0.0000    0.0000    0.0000 C   0  0  0  0  0  0  0  0  0  0  0  0
    0.0000    0.0000    0.0000 C   0  0  0  0  0  0  0  0  0  0  0  0
    0.0000    0.0000    0.0000 C   0  0  0  0  0  0  0  0  0  0  0  0
    0.0000    0.0000    0.0000 C   0  0  0  0  0  0  0  0  0  0  0  0
    0.0000    0.0000    0.0000 C   0  0  0  0  0  0  0  0  0  0  0  0
    0.0000    0.0000    0.0000 C   0  0  0  0  0  0  0  0  0  0  0  0
    0.0000    0.0000    0.0000 O   0  0  0  0  0  0  0  0  0  0  0  0
    0.0000    0.0000    0.0000 O   0  0  0  0  0  0  0  0  0  0  0  0
    0.0000    0.0000    0.0000 C   0  0  0  0  0  0  0  0  0  0  0  0
    0.0000    0.0000    0.0000 C   0  0  0  0  0  0  0  0  0  0  0  0
    0.0000    0.0000    0.0000 C   0  0  0  0  0  0  0  0  0  0  0  0
    0.0000    0.0000    0.0000 C   0  0  0  0  0  0  0  0  0  0  0  0
    0.0000    0.0000    0.0000 C   0  0  0  0  0  0  0  0  0  0  0  0
    0.0000    0.0000    0.0000 C   0  0  0  0  0  0  0  0  0  0  0  0
    0.0000    0.0000    0.0000 C   0  0  0  0  0  0  0  0  0  0  0  0
    0.0000    0.0000    0.0000 C   0  0  0  0  0  0  0  0  0  0  0  0
    0.0000    0.0000    0.0000 C   0  0  0  0  0  0  0  0  0  0  0  0
    0.0000    0.0000    0.0000 C   0  0  0  0  0  0  0  0  0  0  0  0
    0.0000    0.0000    0.0000 C   0  0  0  0  0  0  0  0  0  0  0  0
    0.0000    0.0000    0.0000 C   0  0  0  0  0  0  0  0  0  0  0  0
    0.0000    0.0000    0.0000 C   0  0  0  0  0  0  0  0  0  0  0  0
    0.0000    0.0000    0.0000 C   0  0  0  0  0  0  0  0  0  0  0  0
    0.0000    0.0000    0.0000 N   0  0  0  0  0  0  0  0  0  0  0  0
    0.0000    0.0000    0.0000 C   0  0  0  0  0  0  0  0  0  0  0  0
    0.0000    0.0000    0.0000 C   0  0  0  0  0  0  0  0  0  0  0  0
    0.0000    0.0000    0.0000 C   0  0  0  0  0  0  0  0  0  0  0  0
    0.0000    0.0000    0.0000 C   0  0  0  0  0  0  0  0  0  0  0  0
    0.0000    0.0000    0.0000 C   0  0  0  0  0  0  0  0  0  0  0  0
    0.0000    0.0000    0.0000 C   0  0  0  0  0  0  0  0  0  0  0  0
    0.0000    0.0000    0.0000 C   0  0  0  0  0  0  0  0  0  0  0  0
    0.0000    0.0000    0.0000 O   0  0  0  0  0  0  0  0  0  0  0  0
    0.0000    0.0000    0.0000 C   0  0  0  0  0  0  0  0  0  0  0  0
    0.0000    0.0000    0.0000 C   0  0  0  0  0  0  0  0  0  0  0  0
    0.0000    0.0000    0.0000 C   0  0  0  0  0  0  0  0  0  0  0  0
    0.0000    0.0000    0.0000 C   0  0  0  0  0  0  0  0  0  0  0  0
    0.0000    0.0000    0.0000 C   0  0  0  0  0  0  0  0  0  0  0  0
    0.0000    0.0000    0.0000 C   0  0  0  0  0  0  0  0  0  0  0  0
    0.0000    0.0000    0.0000 C   0  0  0  0  0  0  0  0  0  0  0  0
    0.0000    0.0000    0.0000 C   0  0  0  0  0  0  0  0  0  0  0  0
    0.0000    0.0000    0.0000 C   0  0  0  0  0  0  0  0  0  0  0  0
    0.0000    0.0000    0.0000 C   0  0  0  0  0  0  0  0  0  0  0  0
    0.0000    0.0000    0.0000 C   0  0  0  0  0  0  0  0  0  0  0  0
    0.0000    0.0000    0.0000 C   0  0  0  0  0  0  0  0  0  0  0  0
    0.0000    0.0000    0.0000 C   0  0  0  0  0  0  0  0  0  0  0  0
    0.0000    0.0000    0.0000 C   0  0  0  0  0  0  0  0  0  0  0  0
    0.0000    0.0000    0.0000 N   0  0  0  0  0  0  0  0  0  0  0  0
    0.0000    0.0000    0.0000 C   0  0  0  0  0  0  0  0  0  0  0  0
    0.0000    0.0000    0.0000 C   0  0  0  0  0  0  0  0  0  0  0  0
    0.0000    0.0000    0.0000 C   0  0  0  0  0  0  0  0  0  0  0  0
    0.0000    0.0000    0.0000 C   0  0  0  0  0  0  0  0  0  0  0  0
    0.0000    0.0000    0.0000 C   0  0  0  0  0  0  0  0  0  0  0  0
    0.0000    0.0000    0.0000 C   0  0  0  0  0  0  0  0  0  0  0  0
    0.0000    0.0000    0.0000 C   0  0  0  0  0  0  0  0  0  0  0  0
  1  2  2  0
  2  3  1  0
  3  4  1  0
  4  5  1  0
  5  6  1  0
  6  7  1  0
  7  8  1  0
  8  9  1  0
  9 10  1  0
 10 11  1  0
 11 12  1  0
 12 13  1  0
 13 14  2  0
 13 15  1  0
 15 16  1  0
 16 17  2  0
 17 18  1  0
 18 19  2  0
 19 20  1  0
 20 21  1  0
 21 22  1  0
 22 23  1  0
 23 24  1  0
 24 25  1  0
 25 26  1  0
 26 27  1  0
 27 28  1  0
 28 29  1  0
 29 30  1  0
 30 31  1  0
 31 32  1  0
 32 33  1  0
 33 34  1  0
 34 35  1  0
 27 36  1  0
 36 37  2  0
  2 38  1  0
 38 39  1  0
 39 40  2  0
 40 41  1  0
 41 42  2  0
 42 43  1  0
 43 44  1  0
 44 45  1  0
 45 46  1  0
 46 47  1  0
 47 48  1  0
 48 49  1  0
 49 50  1  0
 50 51  1  0
 51 52  1  0
 52 53  1  0
 53 54  1  0
 54 55  1  0
 55 56  1  0
 56 57  1  0
 57 58  1  0
 50 59  1  0
 59 60  2  0
 37 16  1  0
 36 19  1  0
 30 21  1  0
 27 22  1  0
 35 32  1  0
 60 39  1  0
 59 42  1  0
 53 44  1  0
 50 45  1  0
 58 55  1  0
M  END
>  <pIC50>  (130) 
7.0

>  <ChEMBL_ID>  (130) 
CHEMBL424328

>  <document_journal>  (130) 
J. Med. Chem.

>  <bao_endpoint>  (130) 
BAO_0000190

>  <potential_duplicate>  (130) 
False

>  <uo_units>  (130) 
UO_0000065

>  <canonical_smiles>  (130) 
O=C(CCCCCCCCCCC(=O)Oc1ccc2C[C@@H]3[C@@H]4CCCC[C@]4(CCN3CC5CCC5)c2c1)Oc6ccc7C[C@@H]8[C@@H]9CCCC[C@]9(CCN8CC%10CCC%10)c7c6

>  <parent_molecule_chembl_id>  (130) 
CHEMBL424328

>  <assay_type>  (130) 
B

>  <src_id>  (130) 
1

>  <ligand_efficiency>  (130) 
{u'le': u'0.16', u'bei': u'8.57', u'sei': u'11.85', u'lle': u'-6.17'}

>  <standard_flag>  (130) 
True

>  <molecule_chembl_id>  (130) 
CHEMBL424328

>  <target_organism>  (130) 
Homo sapiens

>  <standard_units>  (130) 
nM

>  <record_id>  (130) 
290077

>  <document_chembl_id>  (130) 
CHEMBL1145905

>  <bao_format>  (130) 
BAO_0000019

>  <data_validity_description>  (130) 
None

>  <activity_id>  (130) 
718706

>  <standard_type>  (130) 
IC50

>  <target_chembl_id>  (130) 
CHEMBL233

>  <data_validity_comment>  (130) 
None

>  <published_value>  (130) 
100

>  <document_year>  (130) 
2003

>  <target_pref_name>  (130) 
Mu opioid receptor

>  <assay_chembl_id>  (130) 
CHEMBL754564

>  <standard_relation>  (130) 
=

>  <assay_description>  (130) 
Inhibitory activity was determined in stimulating [35S]-GTP-gamma S binding mediated by the Opioid receptor mu 1 in chinese Hamster Ovary (CHO)membranes

>  <published_relation>  (130) 
=

>  <standard_value>  (130) 
100

>  <qudt_units>  (130) 
http://www.openphacts.org/units/Nanomolar

>  <target_tax_id>  (130) 
9606

>  <bao_label>  (130) 
assay format

>  <published_units>  (130) 
nM

>  <pchembl_value>  (130) 
7

>  <published_type>  (130) 
IC50

>  <activity_comment>  (130) 
None

$$$$

     RDKit          

 52 61  0  0  0  0  0  0  0  0999 V2000
    0.0000    0.0000    0.0000 O   0  0  0  0  0  0  0  0  0  0  0  0
    0.0000    0.0000    0.0000 C   0  0  0  0  0  0  0  0  0  0  0  0
    0.0000    0.0000    0.0000 O   0  0  0  0  0  0  0  0  0  0  0  0
    0.0000    0.0000    0.0000 C   0  0  0  0  0  0  0  0  0  0  0  0
    0.0000    0.0000    0.0000 C   0  0  0  0  0  0  0  0  0  0  0  0
    0.0000    0.0000    0.0000 C   0  0  0  0  0  0  0  0  0  0  0  0
    0.0000    0.0000    0.0000 C   0  0  0  0  0  0  0  0  0  0  0  0
    0.0000    0.0000    0.0000 C   0  0  0  0  0  0  0  0  0  0  0  0
    0.0000    0.0000    0.0000 C   0  0  0  0  0  0  0  0  0  0  0  0
    0.0000    0.0000    0.0000 C   0  0  0  0  0  0  0  0  0  0  0  0
    0.0000    0.0000    0.0000 C   0  0  0  0  0  0  0  0  0  0  0  0
    0.0000    0.0000    0.0000 C   0  0  0  0  0  0  0  0  0  0  0  0
    0.0000    0.0000    0.0000 C   0  0  0  0  0  0  0  0  0  0  0  0
    0.0000    0.0000    0.0000 C   0  0  0  0  0  0  0  0  0  0  0  0
    0.0000    0.0000    0.0000 C   0  0  0  0  0  0  0  0  0  0  0  0
    0.0000    0.0000    0.0000 C   0  0  0  0  0  0  0  0  0  0  0  0
    0.0000    0.0000    0.0000 C   0  0  0  0  0  0  0  0  0  0  0  0
    0.0000    0.0000    0.0000 N   0  0  0  0  0  0  0  0  0  0  0  0
    0.0000    0.0000    0.0000 C   0  0  0  0  0  0  0  0  0  0  0  0
    0.0000    0.0000    0.0000 C   0  0  0  0  0  0  0  0  0  0  0  0
    0.0000    0.0000    0.0000 C   0  0  0  0  0  0  0  0  0  0  0  0
    0.0000    0.0000    0.0000 C   0  0  0  0  0  0  0  0  0  0  0  0
    0.0000    0.0000    0.0000 C   0  0  0  0  0  0  0  0  0  0  0  0
    0.0000    0.0000    0.0000 C   0  0  0  0  0  0  0  0  0  0  0  0
    0.0000    0.0000    0.0000 C   0  0  0  0  0  0  0  0  0  0  0  0
    0.0000    0.0000    0.0000 C   0  0  0  0  0  0  0  0  0  0  0  0
    0.0000    0.0000    0.0000 C   0  0  0  0  0  0  0  0  0  0  0  0
    0.0000    0.0000    0.0000 C   0  0  0  0  0  0  0  0  0  0  0  0
    0.0000    0.0000    0.0000 O   0  0  0  0  0  0  0  0  0  0  0  0
    0.0000    0.0000    0.0000 O   0  0  0  0  0  0  0  0  0  0  0  0
    0.0000    0.0000    0.0000 C   0  0  0  0  0  0  0  0  0  0  0  0
    0.0000    0.0000    0.0000 C   0  0  0  0  0  0  0  0  0  0  0  0
    0.0000    0.0000    0.0000 C   0  0  0  0  0  0  0  0  0  0  0  0
    0.0000    0.0000    0.0000 C   0  0  0  0  0  0  0  0  0  0  0  0
    0.0000    0.0000    0.0000 C   0  0  0  0  0  0  0  0  0  0  0  0
    0.0000    0.0000    0.0000 C   0  0  0  0  0  0  0  0  0  0  0  0
    0.0000    0.0000    0.0000 C   0  0  0  0  0  0  0  0  0  0  0  0
    0.0000    0.0000    0.0000 C   0  0  0  0  0  0  0  0  0  0  0  0
    0.0000    0.0000    0.0000 C   0  0  0  0  0  0  0  0  0  0  0  0
    0.0000    0.0000    0.0000 C   0  0  0  0  0  0  0  0  0  0  0  0
    0.0000    0.0000    0.0000 C   0  0  0  0  0  0  0  0  0  0  0  0
    0.0000    0.0000    0.0000 C   0  0  0  0  0  0  0  0  0  0  0  0
    0.0000    0.0000    0.0000 C   0  0  0  0  0  0  0  0  0  0  0  0
    0.0000    0.0000    0.0000 C   0  0  0  0  0  0  0  0  0  0  0  0
    0.0000    0.0000    0.0000 N   0  0  0  0  0  0  0  0  0  0  0  0
    0.0000    0.0000    0.0000 C   0  0  0  0  0  0  0  0  0  0  0  0
    0.0000    0.0000    0.0000 C   0  0  0  0  0  0  0  0  0  0  0  0
    0.0000    0.0000    0.0000 C   0  0  0  0  0  0  0  0  0  0  0  0
    0.0000    0.0000    0.0000 C   0  0  0  0  0  0  0  0  0  0  0  0
    0.0000    0.0000    0.0000 C   0  0  0  0  0  0  0  0  0  0  0  0
    0.0000    0.0000    0.0000 C   0  0  0  0  0  0  0  0  0  0  0  0
    0.0000    0.0000    0.0000 C   0  0  0  0  0  0  0  0  0  0  0  0
  1  2  2  0
  2  3  1  0
  3  4  1  0
  4  5  2  0
  5  6  1  0
  6  7  2  0
  7  8  1  0
  8  9  1  0
  9 10  1  0
 10 11  1  0
 11 12  1  0
 12 13  1  0
 13 14  1  0
 14 15  1  0
 15 16  1  0
 16 17  1  0
 17 18  1  0
 18 19  1  0
 19 20  1  0
 20 21  1  0
 21 22  1  0
 22 23  1  0
 15 24  1  0
 24 25  2  0
  2 26  1  0
 26 27  2  0
 27 28  1  0
 28 29  2  0
 28 30  1  0
 30 31  1  0
 31 32  2  0
 32 33  1  0
 33 34  2  0
 34 35  1  0
 35 36  1  0
 36 37  1  0
 37 38  1  0
 38 39  1  0
 39 40  1  0
 40 41  1  0
 41 42  1  0
 42 43  1  0
 43 44  1  0
 44 45  1  0
 45 46  1  0
 46 47  1  0
 47 48  1  0
 48 49  1  0
 49 50  1  0
 42 51  1  0
 51 52  2  0
 25  4  1  0
 24  7  1  0
 18  9  1  0
 15 10  1  0
 23 20  1  0
 52 31  1  0
 51 34  1  0
 45 36  1  0
 42 37  1  0
 50 47  1  0
M  END
>  <pIC50>  (131) 
6.22

>  <ChEMBL_ID>  (131) 
CHEMBL146756

>  <document_journal>  (131) 
J. Med. Chem.

>  <bao_endpoint>  (131) 
BAO_0000190

>  <potential_duplicate>  (131) 
False

>  <uo_units>  (131) 
UO_0000065

>  <canonical_smiles>  (131) 
O=C(Oc1ccc2C[C@@H]3[C@@H]4CCCC[C@]4(CCN3CC5CCC5)c2c1)\C=C\C(=O)Oc6ccc7C[C@@H]8[C@@H]9CCCC[C@]9(CCN8CC%10CCC%10)c7c6

>  <parent_molecule_chembl_id>  (131) 
CHEMBL146756

>  <assay_type>  (131) 
B

>  <src_id>  (131) 
1

>  <ligand_efficiency>  (131) 
{u'le': u'0.16', u'bei': u'8.84', u'sei': u'10.52', u'lle': u'-3.71'}

>  <standard_flag>  (131) 
True

>  <molecule_chembl_id>  (131) 
CHEMBL146756

>  <target_organism>  (131) 
Homo sapiens

>  <standard_units>  (131) 
nM

>  <record_id>  (131) 
290090

>  <document_chembl_id>  (131) 
CHEMBL1145905

>  <bao_format>  (131) 
BAO_0000019

>  <data_validity_description>  (131) 
None

>  <activity_id>  (131) 
719796

>  <standard_type>  (131) 
IC50

>  <target_chembl_id>  (131) 
CHEMBL233

>  <data_validity_comment>  (131) 
None

>  <published_value>  (131) 
610

>  <document_year>  (131) 
2003

>  <target_pref_name>  (131) 
Mu opioid receptor

>  <assay_chembl_id>  (131) 
CHEMBL754564

>  <standard_relation>  (131) 
=

>  <assay_description>  (131) 
Inhibitory activity was determined in stimulating [35S]-GTP-gamma S binding mediated by the Opioid receptor mu 1 in chinese Hamster Ovary (CHO)membranes

>  <published_relation>  (131) 
=

>  <standard_value>  (131) 
610

>  <qudt_units>  (131) 
http://www.openphacts.org/units/Nanomolar

>  <target_tax_id>  (131) 
9606

>  <bao_label>  (131) 
assay format

>  <published_units>  (131) 
nM

>  <pchembl_value>  (131) 
6.22

>  <published_type>  (131) 
IC50

>  <activity_comment>  (131) 
None

$$$$

     RDKit          

 56 65  0  0  0  0  0  0  0  0999 V2000
    0.0000    0.0000    0.0000 O   0  0  0  0  0  0  0  0  0  0  0  0
    0.0000    0.0000    0.0000 C   0  0  0  0  0  0  0  0  0  0  0  0
    0.0000    0.0000    0.0000 C   0  0  0  0  0  0  0  0  0  0  0  0
    0.0000    0.0000    0.0000 C   0  0  0  0  0  0  0  0  0  0  0  0
    0.0000    0.0000    0.0000 C   0  0  0  0  0  0  0  0  0  0  0  0
    0.0000    0.0000    0.0000 C   0  0  0  0  0  0  0  0  0  0  0  0
    0.0000    0.0000    0.0000 C   0  0  0  0  0  0  0  0  0  0  0  0
    0.0000    0.0000    0.0000 C   0  0  0  0  0  0  0  0  0  0  0  0
    0.0000    0.0000    0.0000 C   0  0  0  0  0  0  0  0  0  0  0  0
    0.0000    0.0000    0.0000 O   0  0  0  0  0  0  0  0  0  0  0  0
    0.0000    0.0000    0.0000 O   0  0  0  0  0  0  0  0  0  0  0  0
    0.0000    0.0000    0.0000 C   0  0  0  0  0  0  0  0  0  0  0  0
    0.0000    0.0000    0.0000 C   0  0  0  0  0  0  0  0  0  0  0  0
    0.0000    0.0000    0.0000 C   0  0  0  0  0  0  0  0  0  0  0  0
    0.0000    0.0000    0.0000 C   0  0  0  0  0  0  0  0  0  0  0  0
    0.0000    0.0000    0.0000 C   0  0  0  0  0  0  0  0  0  0  0  0
    0.0000    0.0000    0.0000 C   0  0  0  0  0  0  0  0  0  0  0  0
    0.0000    0.0000    0.0000 C   0  0  0  0  0  0  0  0  0  0  0  0
    0.0000    0.0000    0.0000 C   0  0  0  0  0  0  0  0  0  0  0  0
    0.0000    0.0000    0.0000 C   0  0  0  0  0  0  0  0  0  0  0  0
    0.0000    0.0000    0.0000 C   0  0  0  0  0  0  0  0  0  0  0  0
    0.0000    0.0000    0.0000 C   0  0  0  0  0  0  0  0  0  0  0  0
    0.0000    0.0000    0.0000 C   0  0  0  0  0  0  0  0  0  0  0  0
    0.0000    0.0000    0.0000 C   0  0  0  0  0  0  0  0  0  0  0  0
    0.0000    0.0000    0.0000 C   0  0  0  0  0  0  0  0  0  0  0  0
    0.0000    0.0000    0.0000 N   0  0  0  0  0  0  0  0  0  0  0  0
    0.0000    0.0000    0.0000 C   0  0  0  0  0  0  0  0  0  0  0  0
    0.0000    0.0000    0.0000 C   0  0  0  0  0  0  0  0  0  0  0  0
    0.0000    0.0000    0.0000 C   0  0  0  0  0  0  0  0  0  0  0  0
    0.0000    0.0000    0.0000 C   0  0  0  0  0  0  0  0  0  0  0  0
    0.0000    0.0000    0.0000 C   0  0  0  0  0  0  0  0  0  0  0  0
    0.0000    0.0000    0.0000 C   0  0  0  0  0  0  0  0  0  0  0  0
    0.0000    0.0000    0.0000 C   0  0  0  0  0  0  0  0  0  0  0  0
    0.0000    0.0000    0.0000 O   0  0  0  0  0  0  0  0  0  0  0  0
    0.0000    0.0000    0.0000 C   0  0  0  0  0  0  0  0  0  0  0  0
    0.0000    0.0000    0.0000 C   0  0  0  0  0  0  0  0  0  0  0  0
    0.0000    0.0000    0.0000 C   0  0  0  0  0  0  0  0  0  0  0  0
    0.0000    0.0000    0.0000 C   0  0  0  0  0  0  0  0  0  0  0  0
    0.0000    0.0000    0.0000 C   0  0  0  0  0  0  0  0  0  0  0  0
    0.0000    0.0000    0.0000 C   0  0  0  0  0  0  0  0  0  0  0  0
    0.0000    0.0000    0.0000 C   0  0  0  0  0  0  0  0  0  0  0  0
    0.0000    0.0000    0.0000 C   0  0  0  0  0  0  0  0  0  0  0  0
    0.0000    0.0000    0.0000 C   0  0  0  0  0  0  0  0  0  0  0  0
    0.0000    0.0000    0.0000 C   0  0  0  0  0  0  0  0  0  0  0  0
    0.0000    0.0000    0.0000 C   0  0  0  0  0  0  0  0  0  0  0  0
    0.0000    0.0000    0.0000 C   0  0  0  0  0  0  0  0  0  0  0  0
    0.0000    0.0000    0.0000 C   0  0  0  0  0  0  0  0  0  0  0  0
    0.0000    0.0000    0.0000 C   0  0  0  0  0  0  0  0  0  0  0  0
    0.0000    0.0000    0.0000 N   0  0  0  0  0  0  0  0  0  0  0  0
    0.0000    0.0000    0.0000 C   0  0  0  0  0  0  0  0  0  0  0  0
    0.0000    0.0000    0.0000 C   0  0  0  0  0  0  0  0  0  0  0  0
    0.0000    0.0000    0.0000 C   0  0  0  0  0  0  0  0  0  0  0  0
    0.0000    0.0000    0.0000 C   0  0  0  0  0  0  0  0  0  0  0  0
    0.0000    0.0000    0.0000 C   0  0  0  0  0  0  0  0  0  0  0  0
    0.0000    0.0000    0.0000 C   0  0  0  0  0  0  0  0  0  0  0  0
    0.0000    0.0000    0.0000 C   0  0  0  0  0  0  0  0  0  0  0  0
  1  2  2  0
  2  3  1  0
  3  4  1  0
  4  5  1  0
  5  6  1  0
  6  7  1  0
  7  8  1  0
  8  9  1  0
  9 10  2  0
  9 11  1  0
 11 12  1  0
 12 13  2  0
 13 14  1  0
 14 15  2  0
 15 16  1  0
 16 17  1  0
 17 18  1  0
 18 19  1  0
 19 20  1  0
 20 21  1  0
 21 22  1  0
 22 23  1  0
 23 24  1  0
 24 25  1  0
 25 26  1  0
 26 27  1  0
 27 28  1  0
 28 29  1  0
 29 30  1  0
 30 31  1  0
 23 32  1  0
 32 33  2  0
  2 34  1  0
 34 35  1  0
 35 36  2  0
 36 37  1  0
 37 38  2  0
 38 39  1  0
 39 40  1  0
 40 41  1  0
 41 42  1  0
 42 43  1  0
 43 44  1  0
 44 45  1  0
 45 46  1  0
 46 47  1  0
 47 48  1  0
 48 49  1  0
 49 50  1  0
 50 51  1  0
 51 52  1  0
 52 53  1  0
 53 54  1  0
 46 55  1  0
 55 56  2  0
 33 12  1  0
 32 15  1  0
 26 17  1  0
 23 18  1  0
 31 28  1  0
 56 35  1  0
 55 38  1  0
 49 40  1  0
 46 41  1  0
 54 51  1  0
M  END
>  <pIC50>  (132) 
7.05

>  <ChEMBL_ID>  (132) 
CHEMBL405131

>  <document_journal>  (132) 
J. Med. Chem.

>  <bao_endpoint>  (132) 
BAO_0000190

>  <potential_duplicate>  (132) 
False

>  <uo_units>  (132) 
UO_0000065

>  <canonical_smiles>  (132) 
O=C(CCCCCCC(=O)Oc1ccc2C[C@@H]3[C@@H]4CCCC[C@]4(CCN3CC5CCC5)c2c1)Oc6ccc7C[C@@H]8[C@@H]9CCCC[C@]9(CCN8CC%10CCC%10)c7c6

>  <parent_molecule_chembl_id>  (132) 
CHEMBL405131

>  <assay_type>  (132) 
B

>  <src_id>  (132) 
1

>  <ligand_efficiency>  (132) 
{u'le': u'0.17', u'bei': u'9.26', u'sei': u'11.93', u'lle': u'-4.29'}

>  <standard_flag>  (132) 
True

>  <molecule_chembl_id>  (132) 
CHEMBL405131

>  <target_organism>  (132) 
Homo sapiens

>  <standard_units>  (132) 
nM

>  <record_id>  (132) 
290080

>  <document_chembl_id>  (132) 
CHEMBL1145905

>  <bao_format>  (132) 
BAO_0000019

>  <data_validity_description>  (132) 
None

>  <activity_id>  (132) 
724283

>  <standard_type>  (132) 
IC50

>  <target_chembl_id>  (132) 
CHEMBL233

>  <data_validity_comment>  (132) 
None

>  <published_value>  (132) 
90

>  <document_year>  (132) 
2003

>  <target_pref_name>  (132) 
Mu opioid receptor

>  <assay_chembl_id>  (132) 
CHEMBL754564

>  <standard_relation>  (132) 
=

>  <assay_description>  (132) 
Inhibitory activity was determined in stimulating [35S]-GTP-gamma S binding mediated by the Opioid receptor mu 1 in chinese Hamster Ovary (CHO)membranes

>  <published_relation>  (132) 
=

>  <standard_value>  (132) 
90

>  <qudt_units>  (132) 
http://www.openphacts.org/units/Nanomolar

>  <target_tax_id>  (132) 
9606

>  <bao_label>  (132) 
assay format

>  <published_units>  (132) 
nM

>  <pchembl_value>  (132) 
7.05

>  <published_type>  (132) 
IC50

>  <activity_comment>  (132) 
None

$$$$

     RDKit          

 66 69  0  0  0  0  0  0  0  0999 V2000
    0.0000    0.0000    0.0000 C   0  0  0  0  0  0  0  0  0  0  0  0
    0.0000    0.0000    0.0000 C   0  0  0  0  0  0  0  0  0  0  0  0
    0.0000    0.0000    0.0000 N   0  0  0  0  0  0  0  0  0  0  0  0
    0.0000    0.0000    0.0000 C   0  0  0  0  0  0  0  0  0  0  0  0
    0.0000    0.0000    0.0000 O   0  0  0  0  0  0  0  0  0  0  0  0
    0.0000    0.0000    0.0000 C   0  0  0  0  0  0  0  0  0  0  0  0
    0.0000    0.0000    0.0000 N   0  0  0  0  0  0  0  0  0  0  0  0
    0.0000    0.0000    0.0000 C   0  0  0  0  0  0  0  0  0  0  0  0
    0.0000    0.0000    0.0000 C   0  0  0  0  0  0  0  0  0  0  0  0
    0.0000    0.0000    0.0000 C   0  0  0  0  0  0  0  0  0  0  0  0
    0.0000    0.0000    0.0000 C   0  0  0  0  0  0  0  0  0  0  0  0
    0.0000    0.0000    0.0000 C   0  0  0  0  0  0  0  0  0  0  0  0
    0.0000    0.0000    0.0000 O   0  0  0  0  0  0  0  0  0  0  0  0
    0.0000    0.0000    0.0000 C   0  0  0  0  0  0  0  0  0  0  0  0
    0.0000    0.0000    0.0000 C   0  0  0  0  0  0  0  0  0  0  0  0
    0.0000    0.0000    0.0000 C   0  0  0  0  0  0  0  0  0  0  0  0
    0.0000    0.0000    0.0000 O   0  0  0  0  0  0  0  0  0  0  0  0
    0.0000    0.0000    0.0000 N   0  0  0  0  0  0  0  0  0  0  0  0
    0.0000    0.0000    0.0000 C   0  0  0  0  0  0  0  0  0  0  0  0
    0.0000    0.0000    0.0000 C   0  0  0  0  0  0  0  0  0  0  0  0
    0.0000    0.0000    0.0000 O   0  0  0  0  0  0  0  0  0  0  0  0
    0.0000    0.0000    0.0000 N   0  0  0  0  0  0  0  0  0  0  0  0
    0.0000    0.0000    0.0000 C   0  0  0  0  0  0  0  0  0  0  0  0
    0.0000    0.0000    0.0000 C   0  0  0  0  0  0  0  0  0  0  0  0
    0.0000    0.0000    0.0000 C   0  0  0  0  0  0  0  0  0  0  0  0
    0.0000    0.0000    0.0000 C   0  0  0  0  0  0  0  0  0  0  0  0
    0.0000    0.0000    0.0000 C   0  0  0  0  0  0  0  0  0  0  0  0
    0.0000    0.0000    0.0000 C   0  0  0  0  0  0  0  0  0  0  0  0
    0.0000    0.0000    0.0000 C   0  0  0  0  0  0  0  0  0  0  0  0
    0.0000    0.0000    0.0000 C   0  0  0  0  0  0  0  0  0  0  0  0
    0.0000    0.0000    0.0000 C   0  0  0  0  0  0  0  0  0  0  0  0
    0.0000    0.0000    0.0000 O   0  0  0  0  0  0  0  0  0  0  0  0
    0.0000    0.0000    0.0000 N   0  0  0  0  0  0  0  0  0  0  0  0
    0.0000    0.0000    0.0000 N   0  0  0  0  0  0  0  0  0  0  0  0
    0.0000    0.0000    0.0000 C   0  0  0  0  0  0  0  0  0  0  0  0
    0.0000    0.0000    0.0000 O   0  0  0  0  0  0  0  0  0  0  0  0
    0.0000    0.0000    0.0000 C   0  0  0  0  0  0  0  0  0  0  0  0
    0.0000    0.0000    0.0000 C   0  0  0  0  0  0  0  0  0  0  0  0
    0.0000    0.0000    0.0000 C   0  0  0  0  0  0  0  0  0  0  0  0
    0.0000    0.0000    0.0000 C   0  0  0  0  0  0  0  0  0  0  0  0
    0.0000    0.0000    0.0000 C   0  0  0  0  0  0  0  0  0  0  0  0
    0.0000    0.0000    0.0000 C   0  0  0  0  0  0  0  0  0  0  0  0
    0.0000    0.0000    0.0000 C   0  0  0  0  0  0  0  0  0  0  0  0
    0.0000    0.0000    0.0000 C   0  0  0  0  0  0  0  0  0  0  0  0
    0.0000    0.0000    0.0000 N   0  0  0  0  0  0  0  0  0  0  0  0
    0.0000    0.0000    0.0000 C   0  0  0  0  0  0  0  0  0  0  0  0
    0.0000    0.0000    0.0000 O   0  0  0  0  0  0  0  0  0  0  0  0
    0.0000    0.0000    0.0000 C   0  0  0  0  0  0  0  0  0  0  0  0
    0.0000    0.0000    0.0000 N   0  0  0  0  0  0  0  0  0  0  0  0
    0.0000    0.0000    0.0000 C   0  0  0  0  0  0  0  0  0  0  0  0
    0.0000    0.0000    0.0000 O   0  0  0  0  0  0  0  0  0  0  0  0
    0.0000    0.0000    0.0000 C   0  0  0  0  0  0  0  0  0  0  0  0
    0.0000    0.0000    0.0000 C   0  0  0  0  0  0  0  0  0  0  0  0
    0.0000    0.0000    0.0000 N   0  0  0  0  0  0  0  0  0  0  0  0
    0.0000    0.0000    0.0000 C   0  0  0  0  0  0  0  0  0  0  0  0
    0.0000    0.0000    0.0000 O   0  0  0  0  0  0  0  0  0  0  0  0
    0.0000    0.0000    0.0000 C   0  0  0  0  0  0  0  0  0  0  0  0
    0.0000    0.0000    0.0000 N   0  0  0  0  0  0  0  0  0  0  0  0
    0.0000    0.0000    0.0000 C   0  0  0  0  0  0  0  0  0  0  0  0
    0.0000    0.0000    0.0000 C   0  0  0  0  0  0  0  0  0  0  0  0
    0.0000    0.0000    0.0000 C   0  0  0  0  0  0  0  0  0  0  0  0
    0.0000    0.0000    0.0000 C   0  0  0  0  0  0  0  0  0  0  0  0
    0.0000    0.0000    0.0000 C   0  0  0  0  0  0  0  0  0  0  0  0
    0.0000    0.0000    0.0000 O   0  0  0  0  0  0  0  0  0  0  0  0
    0.0000    0.0000    0.0000 C   0  0  0  0  0  0  0  0  0  0  0  0
    0.0000    0.0000    0.0000 C   0  0  0  0  0  0  0  0  0  0  0  0
  1  2  1  0
  2  3  1  0
  3  4  1  0
  4  5  2  0
  4  6  1  0
  6  7  1  0
  6  8  1  0
  8  9  1  0
  9 10  2  0
 10 11  1  0
 11 12  2  0
 12 13  1  0
 12 14  1  0
 14 15  2  0
  2 16  1  0
 16 17  2  0
 16 18  1  0
 18 19  1  0
 19 20  1  0
 20 21  2  0
 20 22  1  0
 22 23  1  0
 23 24  1  0
 24 25  1  0
 25 26  2  0
 26 27  1  0
 27 28  2  0
 28 29  1  0
 29 30  2  0
 23 31  1  0
 31 32  2  0
 31 33  1  0
 33 34  1  0
 34 35  1  0
 35 36  2  0
 35 37  1  0
 37 38  1  0
 38 39  1  0
 39 40  2  0
 40 41  1  0
 41 42  2  0
 42 43  1  0
 43 44  2  0
 37 45  1  0
 45 46  1  0
 46 47  2  0
 46 48  1  0
 48 49  1  0
 49 50  1  0
 50 51  2  0
 50 52  1  0
 52 53  1  0
 52 54  1  0
 54 55  1  0
 55 56  2  0
 55 57  1  0
 57 58  1  0
 57 59  1  0
 59 60  1  0
 60 61  2  0
 61 62  1  0
 62 63  2  0
 63 64  1  0
 63 65  1  0
 65 66  2  0
 15  9  1  0
 30 25  1  0
 44 39  1  0
 66 60  1  0
M  END
>  <pIC50>  (133) 
8.85

>  <ChEMBL_ID>  (133) 
CHEMBL200199

>  <document_journal>  (133) 
Bioorg. Med. Chem. Lett.

>  <bao_endpoint>  (133) 
BAO_0000190

>  <potential_duplicate>  (133) 
False

>  <uo_units>  (133) 
UO_0000065

>  <canonical_smiles>  (133) 
C[C@@H](NC(=O)[C@@H](N)Cc1ccc(O)cc1)C(=O)NCC(=O)N[C@@H](Cc2ccccc2)C(=O)NNC(=O)[C@H](Cc3ccccc3)NC(=O)CNC(=O)[C@@H](C)NC(=O)[C@@H](N)Cc4ccc(O)cc4

>  <parent_molecule_chembl_id>  (133) 
CHEMBL200199

>  <assay_type>  (133) 
B

>  <src_id>  (133) 
1

>  <ligand_efficiency>  (133) 
{u'le': u'0.18', u'bei': u'9.74', u'sei': u'2.72', u'lle': u'9.23'}

>  <standard_flag>  (133) 
True

>  <molecule_chembl_id>  (133) 
CHEMBL200199

>  <target_organism>  (133) 
Homo sapiens

>  <standard_units>  (133) 
nM

>  <record_id>  (133) 
171936

>  <document_chembl_id>  (133) 
CHEMBL1131989

>  <bao_format>  (133) 
BAO_0000357

>  <data_validity_description>  (133) 
None

>  <activity_id>  (133) 
729768

>  <standard_type>  (133) 
IC50

>  <target_chembl_id>  (133) 
CHEMBL233

>  <data_validity_comment>  (133) 
None

>  <published_value>  (133) 
1.4

>  <document_year>  (133) 
1999

>  <target_pref_name>  (133) 
Mu opioid receptor

>  <assay_chembl_id>  (133) 
CHEMBL744603

>  <standard_relation>  (133) 
=

>  <assay_description>  (133) 
In vitro binding affinity towards mu opioid receptors was determined using [3H][p-Cl-Phe]- 4] DPDPE or [3H]deltorphin II

>  <published_relation>  (133) 
=

>  <standard_value>  (133) 
1.4

>  <qudt_units>  (133) 
http://www.openphacts.org/units/Nanomolar

>  <target_tax_id>  (133) 
9606

>  <bao_label>  (133) 
single protein format

>  <published_units>  (133) 
nM

>  <pchembl_value>  (133) 
8.85

>  <published_type>  (133) 
IC50

>  <activity_comment>  (133) 
None

$$$$

     RDKit          

 50 59  0  0  0  0  0  0  0  0999 V2000
    0.0000    0.0000    0.0000 O   0  0  0  0  0  0  0  0  0  0  0  0
    0.0000    0.0000    0.0000 C   0  0  0  0  0  0  0  0  0  0  0  0
    0.0000    0.0000    0.0000 C   0  0  0  0  0  0  0  0  0  0  0  0
    0.0000    0.0000    0.0000 C   0  0  0  0  0  0  0  0  0  0  0  0
    0.0000    0.0000    0.0000 C   0  0  0  0  0  0  0  0  0  0  0  0
    0.0000    0.0000    0.0000 O   0  0  0  0  0  0  0  0  0  0  0  0
    0.0000    0.0000    0.0000 O   0  0  0  0  0  0  0  0  0  0  0  0
    0.0000    0.0000    0.0000 C   0  0  0  0  0  0  0  0  0  0  0  0
    0.0000    0.0000    0.0000 C   0  0  0  0  0  0  0  0  0  0  0  0
    0.0000    0.0000    0.0000 C   0  0  0  0  0  0  0  0  0  0  0  0
    0.0000    0.0000    0.0000 C   0  0  0  0  0  0  0  0  0  0  0  0
    0.0000    0.0000    0.0000 C   0  0  0  0  0  0  0  0  0  0  0  0
    0.0000    0.0000    0.0000 C   0  0  0  0  0  0  0  0  0  0  0  0
    0.0000    0.0000    0.0000 C   0  0  0  0  0  0  0  0  0  0  0  0
    0.0000    0.0000    0.0000 C   0  0  0  0  0  0  0  0  0  0  0  0
    0.0000    0.0000    0.0000 C   0  0  0  0  0  0  0  0  0  0  0  0
    0.0000    0.0000    0.0000 C   0  0  0  0  0  0  0  0  0  0  0  0
    0.0000    0.0000    0.0000 C   0  0  0  0  0  0  0  0  0  0  0  0
    0.0000    0.0000    0.0000 C   0  0  0  0  0  0  0  0  0  0  0  0
    0.0000    0.0000    0.0000 C   0  0  0  0  0  0  0  0  0  0  0  0
    0.0000    0.0000    0.0000 C   0  0  0  0  0  0  0  0  0  0  0  0
    0.0000    0.0000    0.0000 N   0  0  0  0  0  0  0  0  0  0  0  0
    0.0000    0.0000    0.0000 C   0  0  0  0  0  0  0  0  0  0  0  0
    0.0000    0.0000    0.0000 C   0  0  0  0  0  0  0  0  0  0  0  0
    0.0000    0.0000    0.0000 C   0  0  0  0  0  0  0  0  0  0  0  0
    0.0000    0.0000    0.0000 C   0  0  0  0  0  0  0  0  0  0  0  0
    0.0000    0.0000    0.0000 C   0  0  0  0  0  0  0  0  0  0  0  0
    0.0000    0.0000    0.0000 C   0  0  0  0  0  0  0  0  0  0  0  0
    0.0000    0.0000    0.0000 O   0  0  0  0  0  0  0  0  0  0  0  0
    0.0000    0.0000    0.0000 C   0  0  0  0  0  0  0  0  0  0  0  0
    0.0000    0.0000    0.0000 C   0  0  0  0  0  0  0  0  0  0  0  0
    0.0000    0.0000    0.0000 C   0  0  0  0  0  0  0  0  0  0  0  0
    0.0000    0.0000    0.0000 C   0  0  0  0  0  0  0  0  0  0  0  0
    0.0000    0.0000    0.0000 C   0  0  0  0  0  0  0  0  0  0  0  0
    0.0000    0.0000    0.0000 C   0  0  0  0  0  0  0  0  0  0  0  0
    0.0000    0.0000    0.0000 C   0  0  0  0  0  0  0  0  0  0  0  0
    0.0000    0.0000    0.0000 C   0  0  0  0  0  0  0  0  0  0  0  0
    0.0000    0.0000    0.0000 C   0  0  0  0  0  0  0  0  0  0  0  0
    0.0000    0.0000    0.0000 C   0  0  0  0  0  0  0  0  0  0  0  0
    0.0000    0.0000    0.0000 C   0  0  0  0  0  0  0  0  0  0  0  0
    0.0000    0.0000    0.0000 C   0  0  0  0  0  0  0  0  0  0  0  0
    0.0000    0.0000    0.0000 C   0  0  0  0  0  0  0  0  0  0  0  0
    0.0000    0.0000    0.0000 C   0  0  0  0  0  0  0  0  0  0  0  0
    0.0000    0.0000    0.0000 N   0  0  0  0  0  0  0  0  0  0  0  0
    0.0000    0.0000    0.0000 C   0  0  0  0  0  0  0  0  0  0  0  0
    0.0000    0.0000    0.0000 C   0  0  0  0  0  0  0  0  0  0  0  0
    0.0000    0.0000    0.0000 C   0  0  0  0  0  0  0  0  0  0  0  0
    0.0000    0.0000    0.0000 C   0  0  0  0  0  0  0  0  0  0  0  0
    0.0000    0.0000    0.0000 C   0  0  0  0  0  0  0  0  0  0  0  0
    0.0000    0.0000    0.0000 C   0  0  0  0  0  0  0  0  0  0  0  0
  1  2  2  0
  2  3  1  0
  3  4  1  0
  4  5  1  0
  5  6  2  0
  5  7  1  0
  7  8  1  0
  8  9  2  0
  9 10  1  0
 10 11  2  0
 11 12  1  0
 12 13  1  0
 13 14  1  0
 14 15  1  0
 15 16  1  0
 16 17  1  0
 17 18  1  0
 18 19  1  0
 19 20  1  0
 20 21  1  0
 21 22  1  0
 22 23  1  0
 23 24  1  0
 24 25  1  0
 25 26  1  0
 19 27  1  0
 27 28  2  0
  2 29  1  0
 29 30  1  0
 30 31  2  0
 31 32  1  0
 32 33  2  0
 33 34  1  0
 34 35  1  0
 35 36  1  0
 36 37  1  0
 37 38  1  0
 38 39  1  0
 39 40  1  0
 40 41  1  0
 41 42  1  0
 42 43  1  0
 43 44  1  0
 44 45  1  0
 45 46  1  0
 46 47  1  0
 47 48  1  0
 41 49  1  0
 49 50  2  0
 28  8  1  0
 27 11  1  0
 22 13  1  0
 19 14  1  0
 26 24  1  0
 50 30  1  0
 49 33  1  0
 44 35  1  0
 41 36  1  0
 48 46  1  0
M  END
>  <pIC50>  (134) 
8.75

>  <ChEMBL_ID>  (134) 
CHEMBL413512

>  <document_journal>  (134) 
J. Med. Chem.

>  <bao_endpoint>  (134) 
BAO_0000190

>  <potential_duplicate>  (134) 
False

>  <uo_units>  (134) 
UO_0000065

>  <canonical_smiles>  (134) 
O=C(CCC(=O)Oc1ccc2C[C@@H]3[C@@H]4CCCC[C@]4(CCN3CC5CC5)c2c1)Oc6ccc7C[C@@H]8[C@@H]9CCCC[C@]9(CCN8CC%10CC%10)c7c6

>  <parent_molecule_chembl_id>  (134) 
CHEMBL413512

>  <assay_type>  (134) 
B

>  <src_id>  (134) 
1

>  <ligand_efficiency>  (134) 
{u'le': u'0.24', u'bei': u'12.92', u'sei': u'14.8', u'lle': u'0.13'}

>  <standard_flag>  (134) 
True

>  <molecule_chembl_id>  (134) 
CHEMBL413512

>  <target_organism>  (134) 
Homo sapiens

>  <standard_units>  (134) 
nM

>  <record_id>  (134) 
290085

>  <document_chembl_id>  (134) 
CHEMBL1145905

>  <bao_format>  (134) 
BAO_0000019

>  <data_validity_description>  (134) 
None

>  <activity_id>  (134) 
730270

>  <standard_type>  (134) 
IC50

>  <target_chembl_id>  (134) 
CHEMBL233

>  <data_validity_comment>  (134) 
None

>  <published_value>  (134) 
1.8

>  <document_year>  (134) 
2003

>  <target_pref_name>  (134) 
Mu opioid receptor

>  <assay_chembl_id>  (134) 
CHEMBL754564

>  <standard_relation>  (134) 
=

>  <assay_description>  (134) 
Inhibitory activity was determined in stimulating [35S]-GTP-gamma S binding mediated by the Opioid receptor mu 1 in chinese Hamster Ovary (CHO)membranes

>  <published_relation>  (134) 
=

>  <standard_value>  (134) 
1.8

>  <qudt_units>  (134) 
http://www.openphacts.org/units/Nanomolar

>  <target_tax_id>  (134) 
9606

>  <bao_label>  (134) 
assay format

>  <published_units>  (134) 
nM

>  <pchembl_value>  (134) 
8.75

>  <published_type>  (134) 
IC50

>  <activity_comment>  (134) 
None

$$$$

     RDKit          

 37 41  0  0  0  0  0  0  0  0999 V2000
    0.0000    0.0000    0.0000 C   0  0  0  0  0  0  0  0  0  0  0  0
    0.0000    0.0000    0.0000 O   0  0  0  0  0  0  0  0  0  0  0  0
    0.0000    0.0000    0.0000 C   0  0  0  0  0  0  0  0  0  0  0  0
    0.0000    0.0000    0.0000 O   0  0  0  0  0  0  0  0  0  0  0  0
    0.0000    0.0000    0.0000 C   0  0  0  0  0  0  0  0  0  0  0  0
    0.0000    0.0000    0.0000 C   0  0  0  0  0  0  0  0  0  0  0  0
    0.0000    0.0000    0.0000 C   0  0  0  0  0  0  0  0  0  0  0  0
    0.0000    0.0000    0.0000 C   0  0  0  0  0  0  0  0  0  0  0  0
    0.0000    0.0000    0.0000 C   0  0  0  0  0  0  0  0  0  0  0  0
    0.0000    0.0000    0.0000 C   0  0  0  0  0  0  0  0  0  0  0  0
    0.0000    0.0000    0.0000 C   0  0  0  0  0  0  0  0  0  0  0  0
    0.0000    0.0000    0.0000 C   0  0  0  0  0  0  0  0  0  0  0  0
    0.0000    0.0000    0.0000 C   0  0  0  0  0  0  0  0  0  0  0  0
    0.0000    0.0000    0.0000 O   0  0  0  0  0  0  0  0  0  0  0  0
    0.0000    0.0000    0.0000 O   0  0  0  0  0  0  0  0  0  0  0  0
    0.0000    0.0000    0.0000 C   0  0  0  0  0  0  0  0  0  0  0  0
    0.0000    0.0000    0.0000 C   0  0  0  0  0  0  0  0  0  0  0  0
    0.0000    0.0000    0.0000 C   0  0  0  0  0  0  0  0  0  0  0  0
    0.0000    0.0000    0.0000 C   0  0  0  0  0  0  0  0  0  0  0  0
    0.0000    0.0000    0.0000 C   0  0  0  0  0  0  0  0  0  0  0  0
    0.0000    0.0000    0.0000 C   0  0  0  0  0  0  0  0  0  0  0  0
    0.0000    0.0000    0.0000 C   0  0  0  0  0  0  0  0  0  0  0  0
    0.0000    0.0000    0.0000 C   0  0  0  0  0  0  0  0  0  0  0  0
    0.0000    0.0000    0.0000 C   0  0  0  0  0  0  0  0  0  0  0  0
    0.0000    0.0000    0.0000 C   0  0  0  0  0  0  0  0  0  0  0  0
    0.0000    0.0000    0.0000 C   0  0  0  0  0  0  0  0  0  0  0  0
    0.0000    0.0000    0.0000 C   0  0  0  0  0  0  0  0  0  0  0  0
    0.0000    0.0000    0.0000 C   0  0  0  0  0  0  0  0  0  0  0  0
    0.0000    0.0000    0.0000 C   0  0  0  0  0  0  0  0  0  0  0  0
    0.0000    0.0000    0.0000 N   0  0  0  0  0  0  0  0  0  0  0  0
    0.0000    0.0000    0.0000 C   0  0  0  0  0  0  0  0  0  0  0  0
    0.0000    0.0000    0.0000 C   0  0  0  0  0  0  0  0  0  0  0  0
    0.0000    0.0000    0.0000 C   0  0  0  0  0  0  0  0  0  0  0  0
    0.0000    0.0000    0.0000 C   0  0  0  0  0  0  0  0  0  0  0  0
    0.0000    0.0000    0.0000 C   0  0  0  0  0  0  0  0  0  0  0  0
    0.0000    0.0000    0.0000 C   0  0  0  0  0  0  0  0  0  0  0  0
    0.0000    0.0000    0.0000 C   0  0  0  0  0  0  0  0  0  0  0  0
  1  2  1  0
  2  3  1  0
  3  4  2  0
  3  5  1  0
  5  6  1  0
  6  7  1  0
  7  8  1  0
  8  9  1  0
  9 10  1  0
 10 11  1  0
 11 12  1  0
 12 13  1  0
 13 14  2  0
 13 15  1  0
 15 16  1  0
 16 17  2  0
 17 18  1  0
 18 19  2  0
 19 20  1  0
 20 21  1  0
 21 22  1  0
 22 23  1  0
 23 24  1  0
 24 25  1  0
 25 26  1  0
 26 27  1  0
 27 28  1  0
 28 29  1  0
 29 30  1  0
 30 31  1  0
 31 32  1  0
 32 33  1  0
 33 34  1  0
 34 35  1  0
 27 36  1  0
 36 37  2  0
 37 16  1  0
 36 19  1  0
 30 21  1  0
 27 22  1  0
 35 32  1  0
M  END
>  <pIC50>  (135) 
6.89

>  <ChEMBL_ID>  (135) 
CHEMBL357334

>  <document_journal>  (135) 
J. Med. Chem.

>  <bao_endpoint>  (135) 
BAO_0000190

>  <potential_duplicate>  (135) 
False

>  <uo_units>  (135) 
UO_0000065

>  <canonical_smiles>  (135) 
COC(=O)CCCCCCCCC(=O)Oc1ccc2C[C@@H]3[C@@H]4CCCC[C@]4(CCN3CC5CCC5)c2c1

>  <parent_molecule_chembl_id>  (135) 
CHEMBL357334

>  <assay_type>  (135) 
B

>  <src_id>  (135) 
1

>  <ligand_efficiency>  (135) 
{u'le': u'0.25', u'bei': u'13.51', u'sei': u'12.33', u'lle': u'-0.65'}

>  <standard_flag>  (135) 
True

>  <molecule_chembl_id>  (135) 
CHEMBL357334

>  <target_organism>  (135) 
Homo sapiens

>  <standard_units>  (135) 
nM

>  <record_id>  (135) 
290083

>  <document_chembl_id>  (135) 
CHEMBL1145905

>  <bao_format>  (135) 
BAO_0000019

>  <data_validity_description>  (135) 
None

>  <activity_id>  (135) 
731415

>  <standard_type>  (135) 
IC50

>  <target_chembl_id>  (135) 
CHEMBL233

>  <data_validity_comment>  (135) 
None

>  <published_value>  (135) 
130

>  <document_year>  (135) 
2003

>  <target_pref_name>  (135) 
Mu opioid receptor

>  <assay_chembl_id>  (135) 
CHEMBL754564

>  <standard_relation>  (135) 
=

>  <assay_description>  (135) 
Inhibitory activity was determined in stimulating [35S]-GTP-gamma S binding mediated by the Opioid receptor mu 1 in chinese Hamster Ovary (CHO)membranes

>  <published_relation>  (135) 
=

>  <standard_value>  (135) 
130

>  <qudt_units>  (135) 
http://www.openphacts.org/units/Nanomolar

>  <target_tax_id>  (135) 
9606

>  <bao_label>  (135) 
assay format

>  <published_units>  (135) 
nM

>  <pchembl_value>  (135) 
6.89

>  <published_type>  (135) 
IC50

>  <activity_comment>  (135) 
None

$$$$

     RDKit          

 56 65  0  0  0  0  0  0  0  0999 V2000
    0.0000    0.0000    0.0000 O   0  0  0  0  0  0  0  0  0  0  0  0
    0.0000    0.0000    0.0000 C   0  0  0  0  0  0  0  0  0  0  0  0
    0.0000    0.0000    0.0000 C   0  0  0  0  0  0  0  0  0  0  0  0
    0.0000    0.0000    0.0000 C   0  0  0  0  0  0  0  0  0  0  0  0
    0.0000    0.0000    0.0000 C   0  0  0  0  0  0  0  0  0  0  0  0
    0.0000    0.0000    0.0000 C   0  0  0  0  0  0  0  0  0  0  0  0
    0.0000    0.0000    0.0000 C   0  0  0  0  0  0  0  0  0  0  0  0
    0.0000    0.0000    0.0000 C   0  0  0  0  0  0  0  0  0  0  0  0
    0.0000    0.0000    0.0000 C   0  0  0  0  0  0  0  0  0  0  0  0
    0.0000    0.0000    0.0000 C   0  0  0  0  0  0  0  0  0  0  0  0
    0.0000    0.0000    0.0000 C   0  0  0  0  0  0  0  0  0  0  0  0
    0.0000    0.0000    0.0000 O   0  0  0  0  0  0  0  0  0  0  0  0
    0.0000    0.0000    0.0000 O   0  0  0  0  0  0  0  0  0  0  0  0
    0.0000    0.0000    0.0000 C   0  0  0  0  0  0  0  0  0  0  0  0
    0.0000    0.0000    0.0000 C   0  0  0  0  0  0  0  0  0  0  0  0
    0.0000    0.0000    0.0000 C   0  0  0  0  0  0  0  0  0  0  0  0
    0.0000    0.0000    0.0000 C   0  0  0  0  0  0  0  0  0  0  0  0
    0.0000    0.0000    0.0000 C   0  0  0  0  0  0  0  0  0  0  0  0
    0.0000    0.0000    0.0000 C   0  0  0  0  0  0  0  0  0  0  0  0
    0.0000    0.0000    0.0000 C   0  0  0  0  0  0  0  0  0  0  0  0
    0.0000    0.0000    0.0000 C   0  0  0  0  0  0  0  0  0  0  0  0
    0.0000    0.0000    0.0000 C   0  0  0  0  0  0  0  0  0  0  0  0
    0.0000    0.0000    0.0000 C   0  0  0  0  0  0  0  0  0  0  0  0
    0.0000    0.0000    0.0000 C   0  0  0  0  0  0  0  0  0  0  0  0
    0.0000    0.0000    0.0000 C   0  0  0  0  0  0  0  0  0  0  0  0
    0.0000    0.0000    0.0000 C   0  0  0  0  0  0  0  0  0  0  0  0
    0.0000    0.0000    0.0000 C   0  0  0  0  0  0  0  0  0  0  0  0
    0.0000    0.0000    0.0000 N   0  0  0  0  0  0  0  0  0  0  0  0
    0.0000    0.0000    0.0000 C   0  0  0  0  0  0  0  0  0  0  0  0
    0.0000    0.0000    0.0000 C   0  0  0  0  0  0  0  0  0  0  0  0
    0.0000    0.0000    0.0000 C   0  0  0  0  0  0  0  0  0  0  0  0
    0.0000    0.0000    0.0000 C   0  0  0  0  0  0  0  0  0  0  0  0
    0.0000    0.0000    0.0000 C   0  0  0  0  0  0  0  0  0  0  0  0
    0.0000    0.0000    0.0000 C   0  0  0  0  0  0  0  0  0  0  0  0
    0.0000    0.0000    0.0000 O   0  0  0  0  0  0  0  0  0  0  0  0
    0.0000    0.0000    0.0000 C   0  0  0  0  0  0  0  0  0  0  0  0
    0.0000    0.0000    0.0000 C   0  0  0  0  0  0  0  0  0  0  0  0
    0.0000    0.0000    0.0000 C   0  0  0  0  0  0  0  0  0  0  0  0
    0.0000    0.0000    0.0000 C   0  0  0  0  0  0  0  0  0  0  0  0
    0.0000    0.0000    0.0000 C   0  0  0  0  0  0  0  0  0  0  0  0
    0.0000    0.0000    0.0000 C   0  0  0  0  0  0  0  0  0  0  0  0
    0.0000    0.0000    0.0000 C   0  0  0  0  0  0  0  0  0  0  0  0
    0.0000    0.0000    0.0000 C   0  0  0  0  0  0  0  0  0  0  0  0
    0.0000    0.0000    0.0000 C   0  0  0  0  0  0  0  0  0  0  0  0
    0.0000    0.0000    0.0000 C   0  0  0  0  0  0  0  0  0  0  0  0
    0.0000    0.0000    0.0000 C   0  0  0  0  0  0  0  0  0  0  0  0
    0.0000    0.0000    0.0000 C   0  0  0  0  0  0  0  0  0  0  0  0
    0.0000    0.0000    0.0000 C   0  0  0  0  0  0  0  0  0  0  0  0
    0.0000    0.0000    0.0000 C   0  0  0  0  0  0  0  0  0  0  0  0
    0.0000    0.0000    0.0000 N   0  0  0  0  0  0  0  0  0  0  0  0
    0.0000    0.0000    0.0000 C   0  0  0  0  0  0  0  0  0  0  0  0
    0.0000    0.0000    0.0000 C   0  0  0  0  0  0  0  0  0  0  0  0
    0.0000    0.0000    0.0000 C   0  0  0  0  0  0  0  0  0  0  0  0
    0.0000    0.0000    0.0000 C   0  0  0  0  0  0  0  0  0  0  0  0
    0.0000    0.0000    0.0000 C   0  0  0  0  0  0  0  0  0  0  0  0
    0.0000    0.0000    0.0000 C   0  0  0  0  0  0  0  0  0  0  0  0
  1  2  2  0
  2  3  1  0
  3  4  1  0
  4  5  1  0
  5  6  1  0
  6  7  1  0
  7  8  1  0
  8  9  1  0
  9 10  1  0
 10 11  1  0
 11 12  2  0
 11 13  1  0
 13 14  1  0
 14 15  2  0
 15 16  1  0
 16 17  2  0
 17 18  1  0
 18 19  1  0
 19 20  1  0
 20 21  1  0
 21 22  1  0
 22 23  1  0
 23 24  1  0
 24 25  1  0
 25 26  1  0
 26 27  1  0
 27 28  1  0
 28 29  1  0
 29 30  1  0
 30 31  1  0
 31 32  1  0
 25 33  1  0
 33 34  2  0
  2 35  1  0
 35 36  1  0
 36 37  2  0
 37 38  1  0
 38 39  2  0
 39 40  1  0
 40 41  1  0
 41 42  1  0
 42 43  1  0
 43 44  1  0
 44 45  1  0
 45 46  1  0
 46 47  1  0
 47 48  1  0
 48 49  1  0
 49 50  1  0
 50 51  1  0
 51 52  1  0
 52 53  1  0
 53 54  1  0
 47 55  1  0
 55 56  2  0
 34 14  1  0
 33 17  1  0
 28 19  1  0
 25 20  1  0
 32 30  1  0
 56 36  1  0
 55 39  1  0
 50 41  1  0
 47 42  1  0
 54 52  1  0
M  END
>  <pIC50>  (136) 
7.05

>  <ChEMBL_ID>  (136) 
CHEMBL358104

>  <document_journal>  (136) 
J. Med. Chem.

>  <bao_endpoint>  (136) 
BAO_0000190

>  <potential_duplicate>  (136) 
False

>  <uo_units>  (136) 
UO_0000065

>  <canonical_smiles>  (136) 
O=C(CCCCCCCCC(=O)Oc1ccc2C[C@@H]3[C@@H]4CCCC[C@]4(CCN3CC5CC5)c2c1)Oc6ccc7C[C@@H]8[C@@H]9CCCC[C@]9(CCN8CC%10CC%10)c7c6

>  <parent_molecule_chembl_id>  (136) 
CHEMBL358104

>  <assay_type>  (136) 
B

>  <src_id>  (136) 
1

>  <ligand_efficiency>  (136) 
{u'le': u'0.17', u'bei': u'9.26', u'sei': u'11.93', u'lle': u'-4.29'}

>  <standard_flag>  (136) 
True

>  <molecule_chembl_id>  (136) 
CHEMBL358104

>  <target_organism>  (136) 
Homo sapiens

>  <standard_units>  (136) 
nM

>  <record_id>  (136) 
290084

>  <document_chembl_id>  (136) 
CHEMBL1145905

>  <bao_format>  (136) 
BAO_0000019

>  <data_validity_description>  (136) 
None

>  <activity_id>  (136) 
732528

>  <standard_type>  (136) 
IC50

>  <target_chembl_id>  (136) 
CHEMBL233

>  <data_validity_comment>  (136) 
None

>  <published_value>  (136) 
90

>  <document_year>  (136) 
2003

>  <target_pref_name>  (136) 
Mu opioid receptor

>  <assay_chembl_id>  (136) 
CHEMBL754564

>  <standard_relation>  (136) 
=

>  <assay_description>  (136) 
Inhibitory activity was determined in stimulating [35S]-GTP-gamma S binding mediated by the Opioid receptor mu 1 in chinese Hamster Ovary (CHO)membranes

>  <published_relation>  (136) 
=

>  <standard_value>  (136) 
90

>  <qudt_units>  (136) 
http://www.openphacts.org/units/Nanomolar

>  <target_tax_id>  (136) 
9606

>  <bao_label>  (136) 
assay format

>  <published_units>  (136) 
nM

>  <pchembl_value>  (136) 
7.05

>  <published_type>  (136) 
IC50

>  <activity_comment>  (136) 
None

$$$$

     RDKit          

 48 51  0  0  0  0  0  0  0  0999 V2000
    0.0000    0.0000    0.0000 C   0  0  0  0  0  0  0  0  0  0  0  0
    0.0000    0.0000    0.0000 C   0  0  0  0  0  0  0  0  0  0  0  0
    0.0000    0.0000    0.0000 N   0  0  0  0  0  0  0  0  0  0  0  0
    0.0000    0.0000    0.0000 C   0  0  0  0  0  0  0  0  0  0  0  0
    0.0000    0.0000    0.0000 O   0  0  0  0  0  0  0  0  0  0  0  0
    0.0000    0.0000    0.0000 C   0  0  0  0  0  0  0  0  0  0  0  0
    0.0000    0.0000    0.0000 N   0  0  0  0  0  0  0  0  0  0  0  0
    0.0000    0.0000    0.0000 C   0  0  0  0  0  0  0  0  0  0  0  0
    0.0000    0.0000    0.0000 C   0  0  0  0  0  0  0  0  0  0  0  0
    0.0000    0.0000    0.0000 C   0  0  0  0  0  0  0  0  0  0  0  0
    0.0000    0.0000    0.0000 C   0  0  0  0  0  0  0  0  0  0  0  0
    0.0000    0.0000    0.0000 C   0  0  0  0  0  0  0  0  0  0  0  0
    0.0000    0.0000    0.0000 O   0  0  0  0  0  0  0  0  0  0  0  0
    0.0000    0.0000    0.0000 C   0  0  0  0  0  0  0  0  0  0  0  0
    0.0000    0.0000    0.0000 C   0  0  0  0  0  0  0  0  0  0  0  0
    0.0000    0.0000    0.0000 C   0  0  0  0  0  0  0  0  0  0  0  0
    0.0000    0.0000    0.0000 O   0  0  0  0  0  0  0  0  0  0  0  0
    0.0000    0.0000    0.0000 N   0  0  0  0  0  0  0  0  0  0  0  0
    0.0000    0.0000    0.0000 C   0  0  0  0  0  0  0  0  0  0  0  0
    0.0000    0.0000    0.0000 C   0  0  0  0  0  0  0  0  0  0  0  0
    0.0000    0.0000    0.0000 O   0  0  0  0  0  0  0  0  0  0  0  0
    0.0000    0.0000    0.0000 N   0  0  0  0  0  0  0  0  0  0  0  0
    0.0000    0.0000    0.0000 C   0  0  0  0  0  0  0  0  0  0  0  0
    0.0000    0.0000    0.0000 C   0  0  0  0  0  0  0  0  0  0  0  0
    0.0000    0.0000    0.0000 C   0  0  0  0  0  0  0  0  0  0  0  0
    0.0000    0.0000    0.0000 C   0  0  0  0  0  0  0  0  0  0  0  0
    0.0000    0.0000    0.0000 C   0  0  0  0  0  0  0  0  0  0  0  0
    0.0000    0.0000    0.0000 C   0  0  0  0  0  0  0  0  0  0  0  0
    0.0000    0.0000    0.0000 C   0  0  0  0  0  0  0  0  0  0  0  0
    0.0000    0.0000    0.0000 C   0  0  0  0  0  0  0  0  0  0  0  0
    0.0000    0.0000    0.0000 C   0  0  0  0  0  0  0  0  0  0  0  0
    0.0000    0.0000    0.0000 O   0  0  0  0  0  0  0  0  0  0  0  0
    0.0000    0.0000    0.0000 N   0  0  0  0  0  0  0  0  0  0  0  0
    0.0000    0.0000    0.0000 N   0  0  0  0  0  0  0  0  0  0  0  0
    0.0000    0.0000    0.0000 C   0  0  0  0  0  0  0  0  0  0  0  0
    0.0000    0.0000    0.0000 O   0  0  0  0  0  0  0  0  0  0  0  0
    0.0000    0.0000    0.0000 C   0  0  0  0  0  0  0  0  0  0  0  0
    0.0000    0.0000    0.0000 N   0  0  0  0  0  0  0  0  0  0  0  0
    0.0000    0.0000    0.0000 C   0  0  0  0  0  0  0  0  0  0  0  0
    0.0000    0.0000    0.0000 C   0  0  0  0  0  0  0  0  0  0  0  0
    0.0000    0.0000    0.0000 C   0  0  0  0  0  0  0  0  0  0  0  0
    0.0000    0.0000    0.0000 N   0  0  0  0  0  0  0  0  0  0  0  0
    0.0000    0.0000    0.0000 C   0  0  0  0  0  0  0  0  0  0  0  0
    0.0000    0.0000    0.0000 C   0  0  0  0  0  0  0  0  0  0  0  0
    0.0000    0.0000    0.0000 C   0  0  0  0  0  0  0  0  0  0  0  0
    0.0000    0.0000    0.0000 C   0  0  0  0  0  0  0  0  0  0  0  0
    0.0000    0.0000    0.0000 C   0  0  0  0  0  0  0  0  0  0  0  0
    0.0000    0.0000    0.0000 C   0  0  0  0  0  0  0  0  0  0  0  0
  1  2  1  0
  2  3  1  0
  3  4  1  0
  4  5  2  0
  4  6  1  0
  6  7  1  0
  6  8  1  0
  8  9  1  0
  9 10  2  0
 10 11  1  0
 11 12  2  0
 12 13  1  0
 12 14  1  0
 14 15  2  0
  2 16  1  0
 16 17  2  0
 16 18  1  0
 18 19  1  0
 19 20  1  0
 20 21  2  0
 20 22  1  0
 22 23  1  0
 23 24  1  0
 24 25  1  0
 25 26  2  0
 26 27  1  0
 27 28  2  0
 28 29  1  0
 29 30  2  0
 23 31  1  0
 31 32  2  0
 31 33  1  0
 33 34  1  0
 34 35  1  0
 35 36  2  0
 35 37  1  0
 37 38  1  0
 37 39  1  0
 39 40  1  0
 40 41  2  0
 41 42  1  0
 42 43  1  0
 43 44  2  0
 44 45  1  0
 45 46  2  0
 46 47  1  0
 47 48  2  0
 15  9  1  0
 30 25  1  0
 48 40  1  0
 48 43  1  0
M  END
>  <pIC50>  (137) 
8.7

>  <ChEMBL_ID>  (137) 
CHEMBL92286

>  <document_journal>  (137) 
Bioorg. Med. Chem. Lett.

>  <bao_endpoint>  (137) 
BAO_0000190

>  <potential_duplicate>  (137) 
False

>  <uo_units>  (137) 
UO_0000065

>  <canonical_smiles>  (137) 
C[C@@H](NC(=O)[C@@H](N)Cc1ccc(O)cc1)C(=O)NCC(=O)N[C@@H](Cc2ccccc2)C(=O)NNC(=O)[C@H](N)Cc3c[nH]c4ccccc34

>  <parent_molecule_chembl_id>  (137) 
CHEMBL92286

>  <assay_type>  (137) 
B

>  <src_id>  (137) 
1

>  <ligand_efficiency>  (137) 
{u'le': u'0.25', u'bei': u'13.25', u'sei': u'3.72', u'lle': u'8.24'}

>  <standard_flag>  (137) 
True

>  <molecule_chembl_id>  (137) 
CHEMBL92286

>  <target_organism>  (137) 
Homo sapiens

>  <standard_units>  (137) 
nM

>  <record_id>  (137) 
171942

>  <document_chembl_id>  (137) 
CHEMBL1131989

>  <bao_format>  (137) 
BAO_0000357

>  <data_validity_description>  (137) 
None

>  <activity_id>  (137) 
737032

>  <standard_type>  (137) 
IC50

>  <target_chembl_id>  (137) 
CHEMBL233

>  <data_validity_comment>  (137) 
None

>  <published_value>  (137) 
2

>  <document_year>  (137) 
1999

>  <target_pref_name>  (137) 
Mu opioid receptor

>  <assay_chembl_id>  (137) 
CHEMBL744603

>  <standard_relation>  (137) 
=

>  <assay_description>  (137) 
In vitro binding affinity towards mu opioid receptors was determined using [3H][p-Cl-Phe]- 4] DPDPE or [3H]deltorphin II

>  <published_relation>  (137) 
=

>  <standard_value>  (137) 
2

>  <qudt_units>  (137) 
http://www.openphacts.org/units/Nanomolar

>  <target_tax_id>  (137) 
9606

>  <bao_label>  (137) 
single protein format

>  <published_units>  (137) 
nM

>  <pchembl_value>  (137) 
8.7

>  <published_type>  (137) 
IC50

>  <activity_comment>  (137) 
None

$$$$

     RDKit          

 58 67  0  0  0  0  0  0  0  0999 V2000
    0.0000    0.0000    0.0000 O   0  0  0  0  0  0  0  0  0  0  0  0
    0.0000    0.0000    0.0000 C   0  0  0  0  0  0  0  0  0  0  0  0
    0.0000    0.0000    0.0000 C   0  0  0  0  0  0  0  0  0  0  0  0
    0.0000    0.0000    0.0000 C   0  0  0  0  0  0  0  0  0  0  0  0
    0.0000    0.0000    0.0000 C   0  0  0  0  0  0  0  0  0  0  0  0
    0.0000    0.0000    0.0000 C   0  0  0  0  0  0  0  0  0  0  0  0
    0.0000    0.0000    0.0000 C   0  0  0  0  0  0  0  0  0  0  0  0
    0.0000    0.0000    0.0000 C   0  0  0  0  0  0  0  0  0  0  0  0
    0.0000    0.0000    0.0000 C   0  0  0  0  0  0  0  0  0  0  0  0
    0.0000    0.0000    0.0000 C   0  0  0  0  0  0  0  0  0  0  0  0
    0.0000    0.0000    0.0000 C   0  0  0  0  0  0  0  0  0  0  0  0
    0.0000    0.0000    0.0000 O   0  0  0  0  0  0  0  0  0  0  0  0
    0.0000    0.0000    0.0000 O   0  0  0  0  0  0  0  0  0  0  0  0
    0.0000    0.0000    0.0000 C   0  0  0  0  0  0  0  0  0  0  0  0
    0.0000    0.0000    0.0000 C   0  0  0  0  0  0  0  0  0  0  0  0
    0.0000    0.0000    0.0000 C   0  0  0  0  0  0  0  0  0  0  0  0
    0.0000    0.0000    0.0000 C   0  0  0  0  0  0  0  0  0  0  0  0
    0.0000    0.0000    0.0000 C   0  0  0  0  0  0  0  0  0  0  0  0
    0.0000    0.0000    0.0000 C   0  0  0  0  0  0  0  0  0  0  0  0
    0.0000    0.0000    0.0000 C   0  0  0  0  0  0  0  0  0  0  0  0
    0.0000    0.0000    0.0000 C   0  0  0  0  0  0  0  0  0  0  0  0
    0.0000    0.0000    0.0000 C   0  0  0  0  0  0  0  0  0  0  0  0
    0.0000    0.0000    0.0000 C   0  0  0  0  0  0  0  0  0  0  0  0
    0.0000    0.0000    0.0000 C   0  0  0  0  0  0  0  0  0  0  0  0
    0.0000    0.0000    0.0000 C   0  0  0  0  0  0  0  0  0  0  0  0
    0.0000    0.0000    0.0000 C   0  0  0  0  0  0  0  0  0  0  0  0
    0.0000    0.0000    0.0000 C   0  0  0  0  0  0  0  0  0  0  0  0
    0.0000    0.0000    0.0000 N   0  0  0  0  0  0  0  0  0  0  0  0
    0.0000    0.0000    0.0000 C   0  0  0  0  0  0  0  0  0  0  0  0
    0.0000    0.0000    0.0000 C   0  0  0  0  0  0  0  0  0  0  0  0
    0.0000    0.0000    0.0000 C   0  0  0  0  0  0  0  0  0  0  0  0
    0.0000    0.0000    0.0000 C   0  0  0  0  0  0  0  0  0  0  0  0
    0.0000    0.0000    0.0000 C   0  0  0  0  0  0  0  0  0  0  0  0
    0.0000    0.0000    0.0000 C   0  0  0  0  0  0  0  0  0  0  0  0
    0.0000    0.0000    0.0000 C   0  0  0  0  0  0  0  0  0  0  0  0
    0.0000    0.0000    0.0000 O   0  0  0  0  0  0  0  0  0  0  0  0
    0.0000    0.0000    0.0000 C   0  0  0  0  0  0  0  0  0  0  0  0
    0.0000    0.0000    0.0000 C   0  0  0  0  0  0  0  0  0  0  0  0
    0.0000    0.0000    0.0000 C   0  0  0  0  0  0  0  0  0  0  0  0
    0.0000    0.0000    0.0000 C   0  0  0  0  0  0  0  0  0  0  0  0
    0.0000    0.0000    0.0000 C   0  0  0  0  0  0  0  0  0  0  0  0
    0.0000    0.0000    0.0000 C   0  0  0  0  0  0  0  0  0  0  0  0
    0.0000    0.0000    0.0000 C   0  0  0  0  0  0  0  0  0  0  0  0
    0.0000    0.0000    0.0000 C   0  0  0  0  0  0  0  0  0  0  0  0
    0.0000    0.0000    0.0000 C   0  0  0  0  0  0  0  0  0  0  0  0
    0.0000    0.0000    0.0000 C   0  0  0  0  0  0  0  0  0  0  0  0
    0.0000    0.0000    0.0000 C   0  0  0  0  0  0  0  0  0  0  0  0
    0.0000    0.0000    0.0000 C   0  0  0  0  0  0  0  0  0  0  0  0
    0.0000    0.0000    0.0000 C   0  0  0  0  0  0  0  0  0  0  0  0
    0.0000    0.0000    0.0000 C   0  0  0  0  0  0  0  0  0  0  0  0
    0.0000    0.0000    0.0000 N   0  0  0  0  0  0  0  0  0  0  0  0
    0.0000    0.0000    0.0000 C   0  0  0  0  0  0  0  0  0  0  0  0
    0.0000    0.0000    0.0000 C   0  0  0  0  0  0  0  0  0  0  0  0
    0.0000    0.0000    0.0000 C   0  0  0  0  0  0  0  0  0  0  0  0
    0.0000    0.0000    0.0000 C   0  0  0  0  0  0  0  0  0  0  0  0
    0.0000    0.0000    0.0000 C   0  0  0  0  0  0  0  0  0  0  0  0
    0.0000    0.0000    0.0000 C   0  0  0  0  0  0  0  0  0  0  0  0
    0.0000    0.0000    0.0000 C   0  0  0  0  0  0  0  0  0  0  0  0
  1  2  2  0
  2  3  1  0
  3  4  1  0
  4  5  1  0
  5  6  1  0
  6  7  1  0
  7  8  1  0
  8  9  1  0
  9 10  1  0
 10 11  1  0
 11 12  2  0
 11 13  1  0
 13 14  1  0
 14 15  2  0
 15 16  1  0
 16 17  2  0
 17 18  1  0
 18 19  1  0
 19 20  1  0
 20 21  1  0
 21 22  1  0
 22 23  1  0
 23 24  1  0
 24 25  1  0
 25 26  1  0
 26 27  1  0
 27 28  1  0
 28 29  1  0
 29 30  1  0
 30 31  1  0
 31 32  1  0
 32 33  1  0
 25 34  1  0
 34 35  2  0
  2 36  1  0
 36 37  1  0
 37 38  2  0
 38 39  1  0
 39 40  2  0
 40 41  1  0
 41 42  1  0
 42 43  1  0
 43 44  1  0
 44 45  1  0
 45 46  1  0
 46 47  1  0
 47 48  1  0
 48 49  1  0
 49 50  1  0
 50 51  1  0
 51 52  1  0
 52 53  1  0
 53 54  1  0
 54 55  1  0
 55 56  1  0
 48 57  1  0
 57 58  2  0
 35 14  1  0
 34 17  1  0
 28 19  1  0
 25 20  1  0
 33 30  1  0
 58 37  1  0
 57 40  1  0
 51 42  1  0
 48 43  1  0
 56 53  1  0
M  END
>  <pIC50>  (138) 
7.8

>  <ChEMBL_ID>  (138) 
CHEMBL147511

>  <document_journal>  (138) 
J. Med. Chem.

>  <bao_endpoint>  (138) 
BAO_0000190

>  <potential_duplicate>  (138) 
False

>  <uo_units>  (138) 
UO_0000065

>  <canonical_smiles>  (138) 
O=C(CCCCCCCCC(=O)Oc1ccc2C[C@@H]3[C@@H]4CCCC[C@]4(CCN3CC5CCC5)c2c1)Oc6ccc7C[C@@H]8[C@@H]9CCCC[C@]9(CCN8CC%10CCC%10)c7c6

>  <parent_molecule_chembl_id>  (138) 
CHEMBL147511

>  <assay_type>  (138) 
B

>  <src_id>  (138) 
1

>  <ligand_efficiency>  (138) 
{u'le': u'0.18', u'bei': u'9.88', u'sei': u'13.2', u'lle': u'-4.46'}

>  <standard_flag>  (138) 
True

>  <molecule_chembl_id>  (138) 
CHEMBL147511

>  <target_organism>  (138) 
Homo sapiens

>  <standard_units>  (138) 
nM

>  <record_id>  (138) 
290078

>  <document_chembl_id>  (138) 
CHEMBL1145905

>  <bao_format>  (138) 
BAO_0000019

>  <data_validity_description>  (138) 
None

>  <activity_id>  (138) 
737752

>  <standard_type>  (138) 
IC50

>  <target_chembl_id>  (138) 
CHEMBL233

>  <data_validity_comment>  (138) 
None

>  <published_value>  (138) 
16

>  <document_year>  (138) 
2003

>  <target_pref_name>  (138) 
Mu opioid receptor

>  <assay_chembl_id>  (138) 
CHEMBL754564

>  <standard_relation>  (138) 
=

>  <assay_description>  (138) 
Inhibitory activity was determined in stimulating [35S]-GTP-gamma S binding mediated by the Opioid receptor mu 1 in chinese Hamster Ovary (CHO)membranes

>  <published_relation>  (138) 
=

>  <standard_value>  (138) 
16

>  <qudt_units>  (138) 
http://www.openphacts.org/units/Nanomolar

>  <target_tax_id>  (138) 
9606

>  <bao_label>  (138) 
assay format

>  <published_units>  (138) 
nM

>  <pchembl_value>  (138) 
7.8

>  <published_type>  (138) 
IC50

>  <activity_comment>  (138) 
None

$$$$

     RDKit          

 42 43  0  0  0  0  0  0  0  0999 V2000
    0.0000    0.0000    0.0000 C   0  0  0  0  0  0  0  0  0  0  0  0
    0.0000    0.0000    0.0000 C   0  0  0  0  0  0  0  0  0  0  0  0
    0.0000    0.0000    0.0000 C   0  0  0  0  0  0  0  0  0  0  0  0
    0.0000    0.0000    0.0000 C   0  0  0  0  0  0  0  0  0  0  0  0
    0.0000    0.0000    0.0000 C   0  0  0  0  0  0  0  0  0  0  0  0
    0.0000    0.0000    0.0000 N   0  0  0  0  0  0  0  0  0  0  0  0
    0.0000    0.0000    0.0000 C   0  0  0  0  0  0  0  0  0  0  0  0
    0.0000    0.0000    0.0000 O   0  0  0  0  0  0  0  0  0  0  0  0
    0.0000    0.0000    0.0000 N   0  0  0  0  0  0  0  0  0  0  0  0
    0.0000    0.0000    0.0000 N   0  0  0  0  0  0  0  0  0  0  0  0
    0.0000    0.0000    0.0000 C   0  0  0  0  0  0  0  0  0  0  0  0
    0.0000    0.0000    0.0000 O   0  0  0  0  0  0  0  0  0  0  0  0
    0.0000    0.0000    0.0000 C   0  0  0  0  0  0  0  0  0  0  0  0
    0.0000    0.0000    0.0000 C   0  0  0  0  0  0  0  0  0  0  0  0
    0.0000    0.0000    0.0000 C   0  0  0  0  0  0  0  0  0  0  0  0
    0.0000    0.0000    0.0000 C   0  0  0  0  0  0  0  0  0  0  0  0
    0.0000    0.0000    0.0000 C   0  0  0  0  0  0  0  0  0  0  0  0
    0.0000    0.0000    0.0000 C   0  0  0  0  0  0  0  0  0  0  0  0
    0.0000    0.0000    0.0000 C   0  0  0  0  0  0  0  0  0  0  0  0
    0.0000    0.0000    0.0000 C   0  0  0  0  0  0  0  0  0  0  0  0
    0.0000    0.0000    0.0000 N   0  0  0  0  0  0  0  0  0  0  0  0
    0.0000    0.0000    0.0000 C   0  0  0  0  0  0  0  0  0  0  0  0
    0.0000    0.0000    0.0000 O   0  0  0  0  0  0  0  0  0  0  0  0
    0.0000    0.0000    0.0000 C   0  0  0  0  0  0  0  0  0  0  0  0
    0.0000    0.0000    0.0000 N   0  0  0  0  0  0  0  0  0  0  0  0
    0.0000    0.0000    0.0000 C   0  0  0  0  0  0  0  0  0  0  0  0
    0.0000    0.0000    0.0000 O   0  0  0  0  0  0  0  0  0  0  0  0
    0.0000    0.0000    0.0000 C   0  0  0  0  0  0  0  0  0  0  0  0
    0.0000    0.0000    0.0000 C   0  0  0  0  0  0  0  0  0  0  0  0
    0.0000    0.0000    0.0000 N   0  0  0  0  0  0  0  0  0  0  0  0
    0.0000    0.0000    0.0000 C   0  0  0  0  0  0  0  0  0  0  0  0
    0.0000    0.0000    0.0000 O   0  0  0  0  0  0  0  0  0  0  0  0
    0.0000    0.0000    0.0000 C   0  0  0  0  0  0  0  0  0  0  0  0
    0.0000    0.0000    0.0000 N   0  0  0  0  0  0  0  0  0  0  0  0
    0.0000    0.0000    0.0000 C   0  0  0  0  0  0  0  0  0  0  0  0
    0.0000    0.0000    0.0000 C   0  0  0  0  0  0  0  0  0  0  0  0
    0.0000    0.0000    0.0000 C   0  0  0  0  0  0  0  0  0  0  0  0
    0.0000    0.0000    0.0000 C   0  0  0  0  0  0  0  0  0  0  0  0
    0.0000    0.0000    0.0000 C   0  0  0  0  0  0  0  0  0  0  0  0
    0.0000    0.0000    0.0000 O   0  0  0  0  0  0  0  0  0  0  0  0
    0.0000    0.0000    0.0000 C   0  0  0  0  0  0  0  0  0  0  0  0
    0.0000    0.0000    0.0000 C   0  0  0  0  0  0  0  0  0  0  0  0
  1  2  1  0
  2  3  1  0
  3  4  1  0
  4  5  1  0
  5  6  1  0
  5  7  1  0
  7  8  2  0
  7  9  1  0
  9 10  1  0
 10 11  1  0
 11 12  2  0
 11 13  1  0
 13 14  1  0
 14 15  1  0
 15 16  2  0
 16 17  1  0
 17 18  2  0
 18 19  1  0
 19 20  2  0
 13 21  1  0
 21 22  1  0
 22 23  2  0
 22 24  1  0
 24 25  1  0
 25 26  1  0
 26 27  2  0
 26 28  1  0
 28 29  1  0
 28 30  1  0
 30 31  1  0
 31 32  2  0
 31 33  1  0
 33 34  1  0
 33 35  1  0
 35 36  1  0
 36 37  2  0
 37 38  1  0
 38 39  2  0
 39 40  1  0
 39 41  1  0
 41 42  2  0
 20 15  1  0
 42 36  1  0
M  END
>  <pIC50>  (139) 
8.23

>  <ChEMBL_ID>  (139) 
CHEMBL214929

>  <document_journal>  (139) 
Bioorg. Med. Chem. Lett.

>  <bao_endpoint>  (139) 
BAO_0000190

>  <potential_duplicate>  (139) 
False

>  <uo_units>  (139) 
UO_0000065

>  <canonical_smiles>  (139) 
CCCC[C@@H](N)C(=O)NNC(=O)[C@H](Cc1ccccc1)NC(=O)CNC(=O)[C@@H](C)NC(=O)[C@@H](N)Cc2ccc(O)cc2

>  <parent_molecule_chembl_id>  (139) 
CHEMBL214929

>  <assay_type>  (139) 
B

>  <src_id>  (139) 
1

>  <ligand_efficiency>  (139) 
{u'le': u'0.27', u'bei': u'14.1', u'sei': u'3.78', u'lle': u'8.19'}

>  <standard_flag>  (139) 
True

>  <molecule_chembl_id>  (139) 
CHEMBL214929

>  <target_organism>  (139) 
Homo sapiens

>  <standard_units>  (139) 
nM

>  <record_id>  (139) 
171938

>  <document_chembl_id>  (139) 
CHEMBL1131989

>  <bao_format>  (139) 
BAO_0000357

>  <data_validity_description>  (139) 
None

>  <activity_id>  (139) 
738477

>  <standard_type>  (139) 
IC50

>  <target_chembl_id>  (139) 
CHEMBL233

>  <data_validity_comment>  (139) 
None

>  <published_value>  (139) 
5.9

>  <document_year>  (139) 
1999

>  <target_pref_name>  (139) 
Mu opioid receptor

>  <assay_chembl_id>  (139) 
CHEMBL744603

>  <standard_relation>  (139) 
=

>  <assay_description>  (139) 
In vitro binding affinity towards mu opioid receptors was determined using [3H][p-Cl-Phe]- 4] DPDPE or [3H]deltorphin II

>  <published_relation>  (139) 
=

>  <standard_value>  (139) 
5.9

>  <qudt_units>  (139) 
http://www.openphacts.org/units/Nanomolar

>  <target_tax_id>  (139) 
9606

>  <bao_label>  (139) 
single protein format

>  <published_units>  (139) 
nM

>  <pchembl_value>  (139) 
8.23

>  <published_type>  (139) 
IC50

>  <activity_comment>  (139) 
None

$$$$

     RDKit          

 22 26  0  0  0  0  0  0  0  0999 V2000
    0.0000    0.0000    0.0000 O   0  0  0  0  0  0  0  0  0  0  0  0
    0.0000    0.0000    0.0000 C   0  0  0  0  0  0  0  0  0  0  0  0
    0.0000    0.0000    0.0000 C   0  0  0  0  0  0  0  0  0  0  0  0
    0.0000    0.0000    0.0000 C   0  0  0  0  0  0  0  0  0  0  0  0
    0.0000    0.0000    0.0000 C   0  0  0  0  0  0  0  0  0  0  0  0
    0.0000    0.0000    0.0000 C   0  0  0  0  0  0  0  0  0  0  0  0
    0.0000    0.0000    0.0000 C   0  0  0  0  0  0  0  0  0  0  0  0
    0.0000    0.0000    0.0000 C   0  0  0  0  0  0  0  0  0  0  0  0
    0.0000    0.0000    0.0000 C   0  0  0  0  0  0  0  0  0  0  0  0
    0.0000    0.0000    0.0000 C   0  0  0  0  0  0  0  0  0  0  0  0
    0.0000    0.0000    0.0000 C   0  0  0  0  0  0  0  0  0  0  0  0
    0.0000    0.0000    0.0000 C   0  0  0  0  0  0  0  0  0  0  0  0
    0.0000    0.0000    0.0000 C   0  0  0  0  0  0  0  0  0  0  0  0
    0.0000    0.0000    0.0000 C   0  0  0  0  0  0  0  0  0  0  0  0
    0.0000    0.0000    0.0000 C   0  0  0  0  0  0  0  0  0  0  0  0
    0.0000    0.0000    0.0000 N   0  0  0  0  0  0  0  0  0  0  0  0
    0.0000    0.0000    0.0000 C   0  0  0  0  0  0  0  0  0  0  0  0
    0.0000    0.0000    0.0000 C   0  0  0  0  0  0  0  0  0  0  0  0
    0.0000    0.0000    0.0000 C   0  0  0  0  0  0  0  0  0  0  0  0
    0.0000    0.0000    0.0000 C   0  0  0  0  0  0  0  0  0  0  0  0
    0.0000    0.0000    0.0000 C   0  0  0  0  0  0  0  0  0  0  0  0
    0.0000    0.0000    0.0000 C   0  0  0  0  0  0  0  0  0  0  0  0
  1  2  1  0
  2  3  2  0
  3  4  1  0
  4  5  2  0
  5  6  1  0
  6  7  1  0
  7  8  1  0
  8  9  1  0
  9 10  1  0
 10 11  1  0
 11 12  1  0
 12 13  1  0
 13 14  1  0
 14 15  1  0
 15 16  1  0
 16 17  1  0
 17 18  1  0
 18 19  1  0
 19 20  1  0
 13 21  1  0
 21 22  2  0
 22  2  1  0
 21  5  1  0
 16  7  1  0
 13  8  1  0
 20 18  1  0
M  END
>  <pIC50>  (140) 
8.77

>  <ChEMBL_ID>  (140) 
CHEMBL49269

>  <document_journal>  (140) 
J. Med. Chem.

>  <bao_endpoint>  (140) 
BAO_0000190

>  <potential_duplicate>  (140) 
False

>  <uo_units>  (140) 
UO_0000065

>  <canonical_smiles>  (140) 
Oc1ccc2C[C@@H]3[C@@H]4CCCC[C@]4(CCN3CC5CC5)c2c1

>  <parent_molecule_chembl_id>  (140) 
CHEMBL49269

>  <assay_type>  (140) 
B

>  <src_id>  (140) 
1

>  <ligand_efficiency>  (140) 
{u'le': u'0.54', u'bei': u'29.48', u'sei': u'37.36', u'lle': u'4.5'}

>  <standard_flag>  (140) 
True

>  <molecule_chembl_id>  (140) 
CHEMBL49269

>  <target_organism>  (140) 
Homo sapiens

>  <standard_units>  (140) 
nM

>  <record_id>  (140) 
290070

>  <document_chembl_id>  (140) 
CHEMBL1145905

>  <bao_format>  (140) 
BAO_0000019

>  <data_validity_description>  (140) 
None

>  <activity_id>  (140) 
738984

>  <standard_type>  (140) 
IC50

>  <target_chembl_id>  (140) 
CHEMBL233

>  <data_validity_comment>  (140) 
None

>  <published_value>  (140) 
1.7

>  <document_year>  (140) 
2003

>  <target_pref_name>  (140) 
Mu opioid receptor

>  <assay_chembl_id>  (140) 
CHEMBL754564

>  <standard_relation>  (140) 
=

>  <assay_description>  (140) 
Inhibitory activity was determined in stimulating [35S]-GTP-gamma S binding mediated by the Opioid receptor mu 1 in chinese Hamster Ovary (CHO)membranes

>  <published_relation>  (140) 
=

>  <standard_value>  (140) 
1.7

>  <qudt_units>  (140) 
http://www.openphacts.org/units/Nanomolar

>  <target_tax_id>  (140) 
9606

>  <bao_label>  (140) 
assay format

>  <published_units>  (140) 
nM

>  <pchembl_value>  (140) 
8.77

>  <published_type>  (140) 
IC50

>  <activity_comment>  (140) 
None

$$$$

     RDKit          

 42 43  0  0  0  0  0  0  0  0999 V2000
    0.0000    0.0000    0.0000 C   0  0  0  0  0  0  0  0  0  0  0  0
    0.0000    0.0000    0.0000 C   0  0  0  0  0  0  0  0  0  0  0  0
    0.0000    0.0000    0.0000 C   0  0  0  0  0  0  0  0  0  0  0  0
    0.0000    0.0000    0.0000 C   0  0  0  0  0  0  0  0  0  0  0  0
    0.0000    0.0000    0.0000 C   0  0  0  0  0  0  0  0  0  0  0  0
    0.0000    0.0000    0.0000 N   0  0  0  0  0  0  0  0  0  0  0  0
    0.0000    0.0000    0.0000 C   0  0  0  0  0  0  0  0  0  0  0  0
    0.0000    0.0000    0.0000 O   0  0  0  0  0  0  0  0  0  0  0  0
    0.0000    0.0000    0.0000 N   0  0  0  0  0  0  0  0  0  0  0  0
    0.0000    0.0000    0.0000 N   0  0  0  0  0  0  0  0  0  0  0  0
    0.0000    0.0000    0.0000 C   0  0  0  0  0  0  0  0  0  0  0  0
    0.0000    0.0000    0.0000 O   0  0  0  0  0  0  0  0  0  0  0  0
    0.0000    0.0000    0.0000 C   0  0  0  0  0  0  0  0  0  0  0  0
    0.0000    0.0000    0.0000 C   0  0  0  0  0  0  0  0  0  0  0  0
    0.0000    0.0000    0.0000 C   0  0  0  0  0  0  0  0  0  0  0  0
    0.0000    0.0000    0.0000 C   0  0  0  0  0  0  0  0  0  0  0  0
    0.0000    0.0000    0.0000 C   0  0  0  0  0  0  0  0  0  0  0  0
    0.0000    0.0000    0.0000 C   0  0  0  0  0  0  0  0  0  0  0  0
    0.0000    0.0000    0.0000 C   0  0  0  0  0  0  0  0  0  0  0  0
    0.0000    0.0000    0.0000 C   0  0  0  0  0  0  0  0  0  0  0  0
    0.0000    0.0000    0.0000 N   0  0  0  0  0  0  0  0  0  0  0  0
    0.0000    0.0000    0.0000 C   0  0  0  0  0  0  0  0  0  0  0  0
    0.0000    0.0000    0.0000 O   0  0  0  0  0  0  0  0  0  0  0  0
    0.0000    0.0000    0.0000 C   0  0  0  0  0  0  0  0  0  0  0  0
    0.0000    0.0000    0.0000 N   0  0  0  0  0  0  0  0  0  0  0  0
    0.0000    0.0000    0.0000 C   0  0  0  0  0  0  0  0  0  0  0  0
    0.0000    0.0000    0.0000 O   0  0  0  0  0  0  0  0  0  0  0  0
    0.0000    0.0000    0.0000 C   0  0  0  0  0  0  0  0  0  0  0  0
    0.0000    0.0000    0.0000 C   0  0  0  0  0  0  0  0  0  0  0  0
    0.0000    0.0000    0.0000 N   0  0  0  0  0  0  0  0  0  0  0  0
    0.0000    0.0000    0.0000 C   0  0  0  0  0  0  0  0  0  0  0  0
    0.0000    0.0000    0.0000 O   0  0  0  0  0  0  0  0  0  0  0  0
    0.0000    0.0000    0.0000 C   0  0  0  0  0  0  0  0  0  0  0  0
    0.0000    0.0000    0.0000 N   0  0  0  0  0  0  0  0  0  0  0  0
    0.0000    0.0000    0.0000 C   0  0  0  0  0  0  0  0  0  0  0  0
    0.0000    0.0000    0.0000 C   0  0  0  0  0  0  0  0  0  0  0  0
    0.0000    0.0000    0.0000 C   0  0  0  0  0  0  0  0  0  0  0  0
    0.0000    0.0000    0.0000 C   0  0  0  0  0  0  0  0  0  0  0  0
    0.0000    0.0000    0.0000 C   0  0  0  0  0  0  0  0  0  0  0  0
    0.0000    0.0000    0.0000 O   0  0  0  0  0  0  0  0  0  0  0  0
    0.0000    0.0000    0.0000 C   0  0  0  0  0  0  0  0  0  0  0  0
    0.0000    0.0000    0.0000 C   0  0  0  0  0  0  0  0  0  0  0  0
  1  2  1  0
  2  3  1  0
  3  4  1  0
  4  5  1  0
  5  6  1  0
  5  7  1  0
  7  8  2  0
  7  9  1  0
  9 10  1  0
 10 11  1  0
 11 12  2  0
 11 13  1  0
 13 14  1  0
 14 15  1  0
 15 16  2  0
 16 17  1  0
 17 18  2  0
 18 19  1  0
 19 20  2  0
 13 21  1  0
 21 22  1  0
 22 23  2  0
 22 24  1  0
 24 25  1  0
 25 26  1  0
 26 27  2  0
 26 28  1  0
 28 29  1  0
 28 30  1  0
 30 31  1  0
 31 32  2  0
 31 33  1  0
 33 34  1  0
 33 35  1  0
 35 36  1  0
 36 37  2  0
 37 38  1  0
 38 39  2  0
 39 40  1  0
 39 41  1  0
 41 42  2  0
 20 15  1  0
 42 36  1  0
M  END
>  <pIC50>  (141) 
8.89

>  <ChEMBL_ID>  (141) 
CHEMBL328443

>  <document_journal>  (141) 
Bioorg. Med. Chem. Lett.

>  <bao_endpoint>  (141) 
BAO_0000190

>  <potential_duplicate>  (141) 
False

>  <uo_units>  (141) 
UO_0000065

>  <canonical_smiles>  (141) 
CCCC[C@H](N)C(=O)NNC(=O)[C@H](Cc1ccccc1)NC(=O)CNC(=O)[C@@H](C)NC(=O)[C@@H](N)Cc2ccc(O)cc2

>  <parent_molecule_chembl_id>  (141) 
CHEMBL328443

>  <assay_type>  (141) 
B

>  <src_id>  (141) 
1

>  <ligand_efficiency>  (141) 
{u'le': u'0.29', u'bei': u'15.22', u'sei': u'4.08', u'lle': u'8.85'}

>  <standard_flag>  (141) 
True

>  <molecule_chembl_id>  (141) 
CHEMBL328443

>  <target_organism>  (141) 
Homo sapiens

>  <standard_units>  (141) 
nM

>  <record_id>  (141) 
171941

>  <document_chembl_id>  (141) 
CHEMBL1131989

>  <bao_format>  (141) 
BAO_0000357

>  <data_validity_description>  (141) 
None

>  <activity_id>  (141) 
742400

>  <standard_type>  (141) 
IC50

>  <target_chembl_id>  (141) 
CHEMBL233

>  <data_validity_comment>  (141) 
None

>  <published_value>  (141) 
1.3

>  <document_year>  (141) 
1999

>  <target_pref_name>  (141) 
Mu opioid receptor

>  <assay_chembl_id>  (141) 
CHEMBL744603

>  <standard_relation>  (141) 
=

>  <assay_description>  (141) 
In vitro binding affinity towards mu opioid receptors was determined using [3H][p-Cl-Phe]- 4] DPDPE or [3H]deltorphin II

>  <published_relation>  (141) 
=

>  <standard_value>  (141) 
1.3

>  <qudt_units>  (141) 
http://www.openphacts.org/units/Nanomolar

>  <target_tax_id>  (141) 
9606

>  <bao_label>  (141) 
single protein format

>  <published_units>  (141) 
nM

>  <pchembl_value>  (141) 
8.89

>  <published_type>  (141) 
IC50

>  <activity_comment>  (141) 
None

$$$$

     RDKit          

 52 61  0  0  0  0  0  0  0  0999 V2000
    0.0000    0.0000    0.0000 O   0  0  0  0  0  0  0  0  0  0  0  0
    0.0000    0.0000    0.0000 C   0  0  0  0  0  0  0  0  0  0  0  0
    0.0000    0.0000    0.0000 C   0  0  0  0  0  0  0  0  0  0  0  0
    0.0000    0.0000    0.0000 C   0  0  0  0  0  0  0  0  0  0  0  0
    0.0000    0.0000    0.0000 C   0  0  0  0  0  0  0  0  0  0  0  0
    0.0000    0.0000    0.0000 O   0  0  0  0  0  0  0  0  0  0  0  0
    0.0000    0.0000    0.0000 O   0  0  0  0  0  0  0  0  0  0  0  0
    0.0000    0.0000    0.0000 C   0  0  0  0  0  0  0  0  0  0  0  0
    0.0000    0.0000    0.0000 C   0  0  0  0  0  0  0  0  0  0  0  0
    0.0000    0.0000    0.0000 C   0  0  0  0  0  0  0  0  0  0  0  0
    0.0000    0.0000    0.0000 C   0  0  0  0  0  0  0  0  0  0  0  0
    0.0000    0.0000    0.0000 C   0  0  0  0  0  0  0  0  0  0  0  0
    0.0000    0.0000    0.0000 C   0  0  0  0  0  0  0  0  0  0  0  0
    0.0000    0.0000    0.0000 C   0  0  0  0  0  0  0  0  0  0  0  0
    0.0000    0.0000    0.0000 C   0  0  0  0  0  0  0  0  0  0  0  0
    0.0000    0.0000    0.0000 C   0  0  0  0  0  0  0  0  0  0  0  0
    0.0000    0.0000    0.0000 C   0  0  0  0  0  0  0  0  0  0  0  0
    0.0000    0.0000    0.0000 C   0  0  0  0  0  0  0  0  0  0  0  0
    0.0000    0.0000    0.0000 C   0  0  0  0  0  0  0  0  0  0  0  0
    0.0000    0.0000    0.0000 C   0  0  0  0  0  0  0  0  0  0  0  0
    0.0000    0.0000    0.0000 C   0  0  0  0  0  0  0  0  0  0  0  0
    0.0000    0.0000    0.0000 N   0  0  0  0  0  0  0  0  0  0  0  0
    0.0000    0.0000    0.0000 C   0  0  0  0  0  0  0  0  0  0  0  0
    0.0000    0.0000    0.0000 C   0  0  0  0  0  0  0  0  0  0  0  0
    0.0000    0.0000    0.0000 C   0  0  0  0  0  0  0  0  0  0  0  0
    0.0000    0.0000    0.0000 C   0  0  0  0  0  0  0  0  0  0  0  0
    0.0000    0.0000    0.0000 C   0  0  0  0  0  0  0  0  0  0  0  0
    0.0000    0.0000    0.0000 C   0  0  0  0  0  0  0  0  0  0  0  0
    0.0000    0.0000    0.0000 C   0  0  0  0  0  0  0  0  0  0  0  0
    0.0000    0.0000    0.0000 O   0  0  0  0  0  0  0  0  0  0  0  0
    0.0000    0.0000    0.0000 C   0  0  0  0  0  0  0  0  0  0  0  0
    0.0000    0.0000    0.0000 C   0  0  0  0  0  0  0  0  0  0  0  0
    0.0000    0.0000    0.0000 C   0  0  0  0  0  0  0  0  0  0  0  0
    0.0000    0.0000    0.0000 C   0  0  0  0  0  0  0  0  0  0  0  0
    0.0000    0.0000    0.0000 C   0  0  0  0  0  0  0  0  0  0  0  0
    0.0000    0.0000    0.0000 C   0  0  0  0  0  0  0  0  0  0  0  0
    0.0000    0.0000    0.0000 C   0  0  0  0  0  0  0  0  0  0  0  0
    0.0000    0.0000    0.0000 C   0  0  0  0  0  0  0  0  0  0  0  0
    0.0000    0.0000    0.0000 C   0  0  0  0  0  0  0  0  0  0  0  0
    0.0000    0.0000    0.0000 C   0  0  0  0  0  0  0  0  0  0  0  0
    0.0000    0.0000    0.0000 C   0  0  0  0  0  0  0  0  0  0  0  0
    0.0000    0.0000    0.0000 C   0  0  0  0  0  0  0  0  0  0  0  0
    0.0000    0.0000    0.0000 C   0  0  0  0  0  0  0  0  0  0  0  0
    0.0000    0.0000    0.0000 C   0  0  0  0  0  0  0  0  0  0  0  0
    0.0000    0.0000    0.0000 N   0  0  0  0  0  0  0  0  0  0  0  0
    0.0000    0.0000    0.0000 C   0  0  0  0  0  0  0  0  0  0  0  0
    0.0000    0.0000    0.0000 C   0  0  0  0  0  0  0  0  0  0  0  0
    0.0000    0.0000    0.0000 C   0  0  0  0  0  0  0  0  0  0  0  0
    0.0000    0.0000    0.0000 C   0  0  0  0  0  0  0  0  0  0  0  0
    0.0000    0.0000    0.0000 C   0  0  0  0  0  0  0  0  0  0  0  0
    0.0000    0.0000    0.0000 C   0  0  0  0  0  0  0  0  0  0  0  0
    0.0000    0.0000    0.0000 C   0  0  0  0  0  0  0  0  0  0  0  0
  1  2  2  0
  2  3  1  0
  3  4  1  0
  4  5  1  0
  5  6  2  0
  5  7  1  0
  7  8  1  0
  8  9  2  0
  9 10  1  0
 10 11  2  0
 11 12  1  0
 12 13  1  0
 13 14  1  0
 14 15  1  0
 15 16  1  0
 16 17  1  0
 17 18  1  0
 18 19  1  0
 19 20  1  0
 20 21  1  0
 21 22  1  0
 22 23  1  0
 23 24  1  0
 24 25  1  0
 25 26  1  0
 26 27  1  0
 19 28  1  0
 28 29  2  0
  2 30  1  0
 30 31  1  0
 31 32  2  0
 32 33  1  0
 33 34  2  0
 34 35  1  0
 35 36  1  0
 36 37  1  0
 37 38  1  0
 38 39  1  0
 39 40  1  0
 40 41  1  0
 41 42  1  0
 42 43  1  0
 43 44  1  0
 44 45  1  0
 45 46  1  0
 46 47  1  0
 47 48  1  0
 48 49  1  0
 49 50  1  0
 42 51  1  0
 51 52  2  0
 29  8  1  0
 28 11  1  0
 22 13  1  0
 19 14  1  0
 27 24  1  0
 52 31  1  0
 51 34  1  0
 45 36  1  0
 42 37  1  0
 50 47  1  0
M  END
>  <pIC50>  (142) 
6.77

>  <ChEMBL_ID>  (142) 
CHEMBL433697

>  <document_journal>  (142) 
J. Med. Chem.

>  <bao_endpoint>  (142) 
BAO_0000190

>  <potential_duplicate>  (142) 
False

>  <uo_units>  (142) 
UO_0000065

>  <canonical_smiles>  (142) 
O=C(CCC(=O)Oc1ccc2C[C@@H]3[C@@H]4CCCC[C@]4(CCN3CC5CCC5)c2c1)Oc6ccc7C[C@@H]8[C@@H]9CCCC[C@]9(CCN8CC%10CCC%10)c7c6

>  <parent_molecule_chembl_id>  (142) 
CHEMBL433697

>  <assay_type>  (142) 
B

>  <src_id>  (142) 
1

>  <ligand_efficiency>  (142) 
{u'le': u'0.18', u'bei': u'9.6', u'sei': u'11.46', u'lle': u'-2.75'}

>  <standard_flag>  (142) 
True

>  <molecule_chembl_id>  (142) 
CHEMBL433697

>  <target_organism>  (142) 
Homo sapiens

>  <standard_units>  (142) 
nM

>  <record_id>  (142) 
290082

>  <document_chembl_id>  (142) 
CHEMBL1145905

>  <bao_format>  (142) 
BAO_0000019

>  <data_validity_description>  (142) 
None

>  <activity_id>  (142) 
742943

>  <standard_type>  (142) 
IC50

>  <target_chembl_id>  (142) 
CHEMBL233

>  <data_validity_comment>  (142) 
None

>  <published_value>  (142) 
170

>  <document_year>  (142) 
2003

>  <target_pref_name>  (142) 
Mu opioid receptor

>  <assay_chembl_id>  (142) 
CHEMBL754564

>  <standard_relation>  (142) 
=

>  <assay_description>  (142) 
Inhibitory activity was determined in stimulating [35S]-GTP-gamma S binding mediated by the Opioid receptor mu 1 in chinese Hamster Ovary (CHO)membranes

>  <published_relation>  (142) 
=

>  <standard_value>  (142) 
170

>  <qudt_units>  (142) 
http://www.openphacts.org/units/Nanomolar

>  <target_tax_id>  (142) 
9606

>  <bao_label>  (142) 
assay format

>  <published_units>  (142) 
nM

>  <pchembl_value>  (142) 
6.77

>  <published_type>  (142) 
IC50

>  <activity_comment>  (142) 
None

$$$$

     RDKit          

 46 48  0  0  0  0  0  0  0  0999 V2000
    0.0000    0.0000    0.0000 C   0  0  0  0  0  0  0  0  0  0  0  0
    0.0000    0.0000    0.0000 C   0  0  0  0  0  0  0  0  0  0  0  0
    0.0000    0.0000    0.0000 N   0  0  0  0  0  0  0  0  0  0  0  0
    0.0000    0.0000    0.0000 C   0  0  0  0  0  0  0  0  0  0  0  0
    0.0000    0.0000    0.0000 O   0  0  0  0  0  0  0  0  0  0  0  0
    0.0000    0.0000    0.0000 C   0  0  0  0  0  0  0  0  0  0  0  0
    0.0000    0.0000    0.0000 N   0  0  0  0  0  0  0  0  0  0  0  0
    0.0000    0.0000    0.0000 C   0  0  0  0  0  0  0  0  0  0  0  0
    0.0000    0.0000    0.0000 C   0  0  0  0  0  0  0  0  0  0  0  0
    0.0000    0.0000    0.0000 C   0  0  0  0  0  0  0  0  0  0  0  0
    0.0000    0.0000    0.0000 C   0  0  0  0  0  0  0  0  0  0  0  0
    0.0000    0.0000    0.0000 C   0  0  0  0  0  0  0  0  0  0  0  0
    0.0000    0.0000    0.0000 O   0  0  0  0  0  0  0  0  0  0  0  0
    0.0000    0.0000    0.0000 C   0  0  0  0  0  0  0  0  0  0  0  0
    0.0000    0.0000    0.0000 C   0  0  0  0  0  0  0  0  0  0  0  0
    0.0000    0.0000    0.0000 C   0  0  0  0  0  0  0  0  0  0  0  0
    0.0000    0.0000    0.0000 O   0  0  0  0  0  0  0  0  0  0  0  0
    0.0000    0.0000    0.0000 N   0  0  0  0  0  0  0  0  0  0  0  0
    0.0000    0.0000    0.0000 C   0  0  0  0  0  0  0  0  0  0  0  0
    0.0000    0.0000    0.0000 C   0  0  0  0  0  0  0  0  0  0  0  0
    0.0000    0.0000    0.0000 O   0  0  0  0  0  0  0  0  0  0  0  0
    0.0000    0.0000    0.0000 N   0  0  0  0  0  0  0  0  0  0  0  0
    0.0000    0.0000    0.0000 C   0  0  0  0  0  0  0  0  0  0  0  0
    0.0000    0.0000    0.0000 C   0  0  0  0  0  0  0  0  0  0  0  0
    0.0000    0.0000    0.0000 C   0  0  0  0  0  0  0  0  0  0  0  0
    0.0000    0.0000    0.0000 C   0  0  0  0  0  0  0  0  0  0  0  0
    0.0000    0.0000    0.0000 C   0  0  0  0  0  0  0  0  0  0  0  0
    0.0000    0.0000    0.0000 C   0  0  0  0  0  0  0  0  0  0  0  0
    0.0000    0.0000    0.0000 C   0  0  0  0  0  0  0  0  0  0  0  0
    0.0000    0.0000    0.0000 C   0  0  0  0  0  0  0  0  0  0  0  0
    0.0000    0.0000    0.0000 C   0  0  0  0  0  0  0  0  0  0  0  0
    0.0000    0.0000    0.0000 O   0  0  0  0  0  0  0  0  0  0  0  0
    0.0000    0.0000    0.0000 N   0  0  0  0  0  0  0  0  0  0  0  0
    0.0000    0.0000    0.0000 N   0  0  0  0  0  0  0  0  0  0  0  0
    0.0000    0.0000    0.0000 C   0  0  0  0  0  0  0  0  0  0  0  0
    0.0000    0.0000    0.0000 O   0  0  0  0  0  0  0  0  0  0  0  0
    0.0000    0.0000    0.0000 C   0  0  0  0  0  0  0  0  0  0  0  0
    0.0000    0.0000    0.0000 N   0  0  0  0  0  0  0  0  0  0  0  0
    0.0000    0.0000    0.0000 C   0  0  0  0  0  0  0  0  0  0  0  0
    0.0000    0.0000    0.0000 C   0  0  0  0  0  0  0  0  0  0  0  0
    0.0000    0.0000    0.0000 C   0  0  0  0  0  0  0  0  0  0  0  0
    0.0000    0.0000    0.0000 C   0  0  0  0  0  0  0  0  0  0  0  0
    0.0000    0.0000    0.0000 C   0  0  0  0  0  0  0  0  0  0  0  0
    0.0000    0.0000    0.0000 O   0  0  0  0  0  0  0  0  0  0  0  0
    0.0000    0.0000    0.0000 C   0  0  0  0  0  0  0  0  0  0  0  0
    0.0000    0.0000    0.0000 C   0  0  0  0  0  0  0  0  0  0  0  0
  1  2  1  0
  2  3  1  0
  3  4  1  0
  4  5  2  0
  4  6  1  0
  6  7  1  0
  6  8  1  0
  8  9  1  0
  9 10  2  0
 10 11  1  0
 11 12  2  0
 12 13  1  0
 12 14  1  0
 14 15  2  0
  2 16  1  0
 16 17  2  0
 16 18  1  0
 18 19  1  0
 19 20  1  0
 20 21  2  0
 20 22  1  0
 22 23  1  0
 23 24  1  0
 24 25  1  0
 25 26  2  0
 26 27  1  0
 27 28  2  0
 28 29  1  0
 29 30  2  0
 23 31  1  0
 31 32  2  0
 31 33  1  0
 33 34  1  0
 34 35  1  0
 35 36  2  0
 35 37  1  0
 37 38  1  0
 37 39  1  0
 39 40  1  0
 40 41  2  0
 41 42  1  0
 42 43  2  0
 43 44  1  0
 43 45  1  0
 45 46  2  0
 15  9  1  0
 30 25  1  0
 46 40  1  0
M  END
>  <pIC50>  (143) 
8.8

>  <ChEMBL_ID>  (143) 
CHEMBL432041

>  <document_journal>  (143) 
Bioorg. Med. Chem. Lett.

>  <bao_endpoint>  (143) 
BAO_0000190

>  <potential_duplicate>  (143) 
False

>  <uo_units>  (143) 
UO_0000065

>  <canonical_smiles>  (143) 
C[C@@H](NC(=O)[C@@H](N)Cc1ccc(O)cc1)C(=O)NCC(=O)N[C@@H](Cc2ccccc2)C(=O)NNC(=O)[C@H](N)Cc3ccc(O)cc3

>  <parent_molecule_chembl_id>  (143) 
CHEMBL432041

>  <assay_type>  (143) 
B

>  <src_id>  (143) 
1

>  <ligand_efficiency>  (143) 
{u'le': u'0.26', u'bei': u'13.88', u'sei': u'3.7', u'lle': u'8.88'}

>  <standard_flag>  (143) 
True

>  <molecule_chembl_id>  (143) 
CHEMBL432041

>  <target_organism>  (143) 
Homo sapiens

>  <standard_units>  (143) 
nM

>  <record_id>  (143) 
171944

>  <document_chembl_id>  (143) 
CHEMBL1131989

>  <bao_format>  (143) 
BAO_0000357

>  <data_validity_description>  (143) 
None

>  <activity_id>  (143) 
745096

>  <standard_type>  (143) 
IC50

>  <target_chembl_id>  (143) 
CHEMBL233

>  <data_validity_comment>  (143) 
None

>  <published_value>  (143) 
1.6

>  <document_year>  (143) 
1999

>  <target_pref_name>  (143) 
Mu opioid receptor

>  <assay_chembl_id>  (143) 
CHEMBL744603

>  <standard_relation>  (143) 
=

>  <assay_description>  (143) 
In vitro binding affinity towards mu opioid receptors was determined using [3H][p-Cl-Phe]- 4] DPDPE or [3H]deltorphin II

>  <published_relation>  (143) 
=

>  <standard_value>  (143) 
1.6

>  <qudt_units>  (143) 
http://www.openphacts.org/units/Nanomolar

>  <target_tax_id>  (143) 
9606

>  <bao_label>  (143) 
single protein format

>  <published_units>  (143) 
nM

>  <pchembl_value>  (143) 
8.8

>  <published_type>  (143) 
IC50

>  <activity_comment>  (143) 
None

$$$$

     RDKit          

 45 47  0  0  0  0  0  0  0  0999 V2000
    0.0000    0.0000    0.0000 C   0  0  0  0  0  0  0  0  0  0  0  0
    0.0000    0.0000    0.0000 C   0  0  0  0  0  0  0  0  0  0  0  0
    0.0000    0.0000    0.0000 N   0  0  0  0  0  0  0  0  0  0  0  0
    0.0000    0.0000    0.0000 C   0  0  0  0  0  0  0  0  0  0  0  0
    0.0000    0.0000    0.0000 O   0  0  0  0  0  0  0  0  0  0  0  0
    0.0000    0.0000    0.0000 C   0  0  0  0  0  0  0  0  0  0  0  0
    0.0000    0.0000    0.0000 N   0  0  0  0  0  0  0  0  0  0  0  0
    0.0000    0.0000    0.0000 C   0  0  0  0  0  0  0  0  0  0  0  0
    0.0000    0.0000    0.0000 C   0  0  0  0  0  0  0  0  0  0  0  0
    0.0000    0.0000    0.0000 C   0  0  0  0  0  0  0  0  0  0  0  0
    0.0000    0.0000    0.0000 C   0  0  0  0  0  0  0  0  0  0  0  0
    0.0000    0.0000    0.0000 C   0  0  0  0  0  0  0  0  0  0  0  0
    0.0000    0.0000    0.0000 O   0  0  0  0  0  0  0  0  0  0  0  0
    0.0000    0.0000    0.0000 C   0  0  0  0  0  0  0  0  0  0  0  0
    0.0000    0.0000    0.0000 C   0  0  0  0  0  0  0  0  0  0  0  0
    0.0000    0.0000    0.0000 C   0  0  0  0  0  0  0  0  0  0  0  0
    0.0000    0.0000    0.0000 O   0  0  0  0  0  0  0  0  0  0  0  0
    0.0000    0.0000    0.0000 N   0  0  0  0  0  0  0  0  0  0  0  0
    0.0000    0.0000    0.0000 C   0  0  0  0  0  0  0  0  0  0  0  0
    0.0000    0.0000    0.0000 C   0  0  0  0  0  0  0  0  0  0  0  0
    0.0000    0.0000    0.0000 O   0  0  0  0  0  0  0  0  0  0  0  0
    0.0000    0.0000    0.0000 N   0  0  0  0  0  0  0  0  0  0  0  0
    0.0000    0.0000    0.0000 C   0  0  0  0  0  0  0  0  0  0  0  0
    0.0000    0.0000    0.0000 C   0  0  0  0  0  0  0  0  0  0  0  0
    0.0000    0.0000    0.0000 C   0  0  0  0  0  0  0  0  0  0  0  0
    0.0000    0.0000    0.0000 C   0  0  0  0  0  0  0  0  0  0  0  0
    0.0000    0.0000    0.0000 C   0  0  0  0  0  0  0  0  0  0  0  0
    0.0000    0.0000    0.0000 C   0  0  0  0  0  0  0  0  0  0  0  0
    0.0000    0.0000    0.0000 C   0  0  0  0  0  0  0  0  0  0  0  0
    0.0000    0.0000    0.0000 C   0  0  0  0  0  0  0  0  0  0  0  0
    0.0000    0.0000    0.0000 C   0  0  0  0  0  0  0  0  0  0  0  0
    0.0000    0.0000    0.0000 O   0  0  0  0  0  0  0  0  0  0  0  0
    0.0000    0.0000    0.0000 N   0  0  0  0  0  0  0  0  0  0  0  0
    0.0000    0.0000    0.0000 N   0  0  0  0  0  0  0  0  0  0  0  0
    0.0000    0.0000    0.0000 C   0  0  0  0  0  0  0  0  0  0  0  0
    0.0000    0.0000    0.0000 O   0  0  0  0  0  0  0  0  0  0  0  0
    0.0000    0.0000    0.0000 C   0  0  0  0  0  0  0  0  0  0  0  0
    0.0000    0.0000    0.0000 N   0  0  0  0  0  0  0  0  0  0  0  0
    0.0000    0.0000    0.0000 C   0  0  0  0  0  0  0  0  0  0  0  0
    0.0000    0.0000    0.0000 C   0  0  0  0  0  0  0  0  0  0  0  0
    0.0000    0.0000    0.0000 C   0  0  0  0  0  0  0  0  0  0  0  0
    0.0000    0.0000    0.0000 C   0  0  0  0  0  0  0  0  0  0  0  0
    0.0000    0.0000    0.0000 C   0  0  0  0  0  0  0  0  0  0  0  0
    0.0000    0.0000    0.0000 C   0  0  0  0  0  0  0  0  0  0  0  0
    0.0000    0.0000    0.0000 C   0  0  0  0  0  0  0  0  0  0  0  0
  1  2  1  0
  2  3  1  0
  3  4  1  0
  4  5  2  0
  4  6  1  0
  6  7  1  0
  6  8  1  0
  8  9  1  0
  9 10  2  0
 10 11  1  0
 11 12  2  0
 12 13  1  0
 12 14  1  0
 14 15  2  0
  2 16  1  0
 16 17  2  0
 16 18  1  0
 18 19  1  0
 19 20  1  0
 20 21  2  0
 20 22  1  0
 22 23  1  0
 23 24  1  0
 24 25  1  0
 25 26  2  0
 26 27  1  0
 27 28  2  0
 28 29  1  0
 29 30  2  0
 23 31  1  0
 31 32  2  0
 31 33  1  0
 33 34  1  0
 34 35  1  0
 35 36  2  0
 35 37  1  0
 37 38  1  0
 37 39  1  0
 39 40  1  0
 40 41  2  0
 41 42  1  0
 42 43  2  0
 43 44  1  0
 44 45  2  0
 15  9  1  0
 30 25  1  0
 45 40  1  0
M  END
>  <pIC50>  (144) 
9.13

>  <ChEMBL_ID>  (144) 
CHEMBL328902

>  <document_journal>  (144) 
Bioorg. Med. Chem. Lett.

>  <bao_endpoint>  (144) 
BAO_0000190

>  <potential_duplicate>  (144) 
False

>  <uo_units>  (144) 
UO_0000065

>  <canonical_smiles>  (144) 
C[C@@H](NC(=O)[C@@H](N)Cc1ccc(O)cc1)C(=O)NCC(=O)N[C@@H](Cc2ccccc2)C(=O)NNC(=O)[C@H](N)Cc3ccccc3

>  <parent_molecule_chembl_id>  (144) 
CHEMBL328902

>  <assay_type>  (144) 
B

>  <src_id>  (144) 
1

>  <ligand_efficiency>  (144) 
{u'le': u'0.28', u'bei': u'14.78', u'sei': u'4.19', u'lle': u'8.97'}

>  <standard_flag>  (144) 
True

>  <molecule_chembl_id>  (144) 
CHEMBL328902

>  <target_organism>  (144) 
Homo sapiens

>  <standard_units>  (144) 
nM

>  <record_id>  (144) 
171939

>  <document_chembl_id>  (144) 
CHEMBL1131989

>  <bao_format>  (144) 
BAO_0000357

>  <data_validity_description>  (144) 
None

>  <activity_id>  (144) 
747524

>  <standard_type>  (144) 
IC50

>  <target_chembl_id>  (144) 
CHEMBL233

>  <data_validity_comment>  (144) 
None

>  <published_value>  (144) 
0.74

>  <document_year>  (144) 
1999

>  <target_pref_name>  (144) 
Mu opioid receptor

>  <assay_chembl_id>  (144) 
CHEMBL744603

>  <standard_relation>  (144) 
=

>  <assay_description>  (144) 
In vitro binding affinity towards mu opioid receptors was determined using [3H][p-Cl-Phe]- 4] DPDPE or [3H]deltorphin II

>  <published_relation>  (144) 
=

>  <standard_value>  (144) 
0.74

>  <qudt_units>  (144) 
http://www.openphacts.org/units/Nanomolar

>  <target_tax_id>  (144) 
9606

>  <bao_label>  (144) 
single protein format

>  <published_units>  (144) 
nM

>  <pchembl_value>  (144) 
9.13

>  <published_type>  (144) 
IC50

>  <activity_comment>  (144) 
None

$$$$

     RDKit          

 45 47  0  0  0  0  0  0  0  0999 V2000
    0.0000    0.0000    0.0000 C   0  0  0  0  0  0  0  0  0  0  0  0
    0.0000    0.0000    0.0000 C   0  0  0  0  0  0  0  0  0  0  0  0
    0.0000    0.0000    0.0000 N   0  0  0  0  0  0  0  0  0  0  0  0
    0.0000    0.0000    0.0000 C   0  0  0  0  0  0  0  0  0  0  0  0
    0.0000    0.0000    0.0000 O   0  0  0  0  0  0  0  0  0  0  0  0
    0.0000    0.0000    0.0000 C   0  0  0  0  0  0  0  0  0  0  0  0
    0.0000    0.0000    0.0000 N   0  0  0  0  0  0  0  0  0  0  0  0
    0.0000    0.0000    0.0000 C   0  0  0  0  0  0  0  0  0  0  0  0
    0.0000    0.0000    0.0000 C   0  0  0  0  0  0  0  0  0  0  0  0
    0.0000    0.0000    0.0000 C   0  0  0  0  0  0  0  0  0  0  0  0
    0.0000    0.0000    0.0000 C   0  0  0  0  0  0  0  0  0  0  0  0
    0.0000    0.0000    0.0000 C   0  0  0  0  0  0  0  0  0  0  0  0
    0.0000    0.0000    0.0000 O   0  0  0  0  0  0  0  0  0  0  0  0
    0.0000    0.0000    0.0000 C   0  0  0  0  0  0  0  0  0  0  0  0
    0.0000    0.0000    0.0000 C   0  0  0  0  0  0  0  0  0  0  0  0
    0.0000    0.0000    0.0000 C   0  0  0  0  0  0  0  0  0  0  0  0
    0.0000    0.0000    0.0000 O   0  0  0  0  0  0  0  0  0  0  0  0
    0.0000    0.0000    0.0000 N   0  0  0  0  0  0  0  0  0  0  0  0
    0.0000    0.0000    0.0000 C   0  0  0  0  0  0  0  0  0  0  0  0
    0.0000    0.0000    0.0000 C   0  0  0  0  0  0  0  0  0  0  0  0
    0.0000    0.0000    0.0000 O   0  0  0  0  0  0  0  0  0  0  0  0
    0.0000    0.0000    0.0000 N   0  0  0  0  0  0  0  0  0  0  0  0
    0.0000    0.0000    0.0000 C   0  0  0  0  0  0  0  0  0  0  0  0
    0.0000    0.0000    0.0000 C   0  0  0  0  0  0  0  0  0  0  0  0
    0.0000    0.0000    0.0000 C   0  0  0  0  0  0  0  0  0  0  0  0
    0.0000    0.0000    0.0000 C   0  0  0  0  0  0  0  0  0  0  0  0
    0.0000    0.0000    0.0000 C   0  0  0  0  0  0  0  0  0  0  0  0
    0.0000    0.0000    0.0000 C   0  0  0  0  0  0  0  0  0  0  0  0
    0.0000    0.0000    0.0000 C   0  0  0  0  0  0  0  0  0  0  0  0
    0.0000    0.0000    0.0000 C   0  0  0  0  0  0  0  0  0  0  0  0
    0.0000    0.0000    0.0000 C   0  0  0  0  0  0  0  0  0  0  0  0
    0.0000    0.0000    0.0000 O   0  0  0  0  0  0  0  0  0  0  0  0
    0.0000    0.0000    0.0000 N   0  0  0  0  0  0  0  0  0  0  0  0
    0.0000    0.0000    0.0000 N   0  0  0  0  0  0  0  0  0  0  0  0
    0.0000    0.0000    0.0000 C   0  0  0  0  0  0  0  0  0  0  0  0
    0.0000    0.0000    0.0000 O   0  0  0  0  0  0  0  0  0  0  0  0
    0.0000    0.0000    0.0000 C   0  0  0  0  0  0  0  0  0  0  0  0
    0.0000    0.0000    0.0000 N   0  0  0  0  0  0  0  0  0  0  0  0
    0.0000    0.0000    0.0000 C   0  0  0  0  0  0  0  0  0  0  0  0
    0.0000    0.0000    0.0000 C   0  0  0  0  0  0  0  0  0  0  0  0
    0.0000    0.0000    0.0000 C   0  0  0  0  0  0  0  0  0  0  0  0
    0.0000    0.0000    0.0000 C   0  0  0  0  0  0  0  0  0  0  0  0
    0.0000    0.0000    0.0000 C   0  0  0  0  0  0  0  0  0  0  0  0
    0.0000    0.0000    0.0000 C   0  0  0  0  0  0  0  0  0  0  0  0
    0.0000    0.0000    0.0000 C   0  0  0  0  0  0  0  0  0  0  0  0
  1  2  1  0
  2  3  1  0
  3  4  1  0
  4  5  2  0
  4  6  1  0
  6  7  1  0
  6  8  1  0
  8  9  1  0
  9 10  2  0
 10 11  1  0
 11 12  2  0
 12 13  1  0
 12 14  1  0
 14 15  2  0
  2 16  1  0
 16 17  2  0
 16 18  1  0
 18 19  1  0
 19 20  1  0
 20 21  2  0
 20 22  1  0
 22 23  1  0
 23 24  1  0
 24 25  1  0
 25 26  2  0
 26 27  1  0
 27 28  2  0
 28 29  1  0
 29 30  2  0
 23 31  1  0
 31 32  2  0
 31 33  1  0
 33 34  1  0
 34 35  1  0
 35 36  2  0
 35 37  1  0
 37 38  1  0
 37 39  1  0
 39 40  1  0
 40 41  2  0
 41 42  1  0
 42 43  2  0
 43 44  1  0
 44 45  2  0
 15  9  1  0
 30 25  1  0
 45 40  1  0
M  END
>  <pIC50>  (145) 
9.06

>  <ChEMBL_ID>  (145) 
CHEMBL92503

>  <document_journal>  (145) 
Bioorg. Med. Chem. Lett.

>  <bao_endpoint>  (145) 
BAO_0000190

>  <potential_duplicate>  (145) 
False

>  <uo_units>  (145) 
UO_0000065

>  <canonical_smiles>  (145) 
C[C@@H](NC(=O)[C@@H](N)Cc1ccc(O)cc1)C(=O)NCC(=O)N[C@@H](Cc2ccccc2)C(=O)NNC(=O)[C@@H](N)Cc3ccccc3

>  <parent_molecule_chembl_id>  (145) 
CHEMBL92503

>  <assay_type>  (145) 
B

>  <src_id>  (145) 
1

>  <ligand_efficiency>  (145) 
{u'le': u'0.27', u'bei': u'14.66', u'sei': u'4.16', u'lle': u'8.9'}

>  <standard_flag>  (145) 
True

>  <molecule_chembl_id>  (145) 
CHEMBL92503

>  <target_organism>  (145) 
Homo sapiens

>  <standard_units>  (145) 
nM

>  <record_id>  (145) 
171937

>  <document_chembl_id>  (145) 
CHEMBL1131989

>  <bao_format>  (145) 
BAO_0000357

>  <data_validity_description>  (145) 
None

>  <activity_id>  (145) 
747528

>  <standard_type>  (145) 
IC50

>  <target_chembl_id>  (145) 
CHEMBL233

>  <data_validity_comment>  (145) 
None

>  <published_value>  (145) 
0.88

>  <document_year>  (145) 
1999

>  <target_pref_name>  (145) 
Mu opioid receptor

>  <assay_chembl_id>  (145) 
CHEMBL744603

>  <standard_relation>  (145) 
=

>  <assay_description>  (145) 
In vitro binding affinity towards mu opioid receptors was determined using [3H][p-Cl-Phe]- 4] DPDPE or [3H]deltorphin II

>  <published_relation>  (145) 
=

>  <standard_value>  (145) 
0.88

>  <qudt_units>  (145) 
http://www.openphacts.org/units/Nanomolar

>  <target_tax_id>  (145) 
9606

>  <bao_label>  (145) 
single protein format

>  <published_units>  (145) 
nM

>  <pchembl_value>  (145) 
9.06

>  <published_type>  (145) 
IC50

>  <activity_comment>  (145) 
None

$$$$

     RDKit          

 57 66  0  0  0  0  0  0  0  0999 V2000
    0.0000    0.0000    0.0000 O   0  0  0  0  0  0  0  0  0  0  0  0
    0.0000    0.0000    0.0000 C   0  0  0  0  0  0  0  0  0  0  0  0
    0.0000    0.0000    0.0000 C   0  0  0  0  0  0  0  0  0  0  0  0
    0.0000    0.0000    0.0000 C   0  0  0  0  0  0  0  0  0  0  0  0
    0.0000    0.0000    0.0000 C   0  0  0  0  0  0  0  0  0  0  0  0
    0.0000    0.0000    0.0000 C   0  0  0  0  0  0  0  0  0  0  0  0
    0.0000    0.0000    0.0000 C   0  0  0  0  0  0  0  0  0  0  0  0
    0.0000    0.0000    0.0000 C   0  0  0  0  0  0  0  0  0  0  0  0
    0.0000    0.0000    0.0000 C   0  0  0  0  0  0  0  0  0  0  0  0
    0.0000    0.0000    0.0000 C   0  0  0  0  0  0  0  0  0  0  0  0
    0.0000    0.0000    0.0000 O   0  0  0  0  0  0  0  0  0  0  0  0
    0.0000    0.0000    0.0000 O   0  0  0  0  0  0  0  0  0  0  0  0
    0.0000    0.0000    0.0000 C   0  0  0  0  0  0  0  0  0  0  0  0
    0.0000    0.0000    0.0000 C   0  0  0  0  0  0  0  0  0  0  0  0
    0.0000    0.0000    0.0000 C   0  0  0  0  0  0  0  0  0  0  0  0
    0.0000    0.0000    0.0000 C   0  0  0  0  0  0  0  0  0  0  0  0
    0.0000    0.0000    0.0000 C   0  0  0  0  0  0  0  0  0  0  0  0
    0.0000    0.0000    0.0000 C   0  0  0  0  0  0  0  0  0  0  0  0
    0.0000    0.0000    0.0000 C   0  0  0  0  0  0  0  0  0  0  0  0
    0.0000    0.0000    0.0000 C   0  0  0  0  0  0  0  0  0  0  0  0
    0.0000    0.0000    0.0000 C   0  0  0  0  0  0  0  0  0  0  0  0
    0.0000    0.0000    0.0000 C   0  0  0  0  0  0  0  0  0  0  0  0
    0.0000    0.0000    0.0000 C   0  0  0  0  0  0  0  0  0  0  0  0
    0.0000    0.0000    0.0000 C   0  0  0  0  0  0  0  0  0  0  0  0
    0.0000    0.0000    0.0000 C   0  0  0  0  0  0  0  0  0  0  0  0
    0.0000    0.0000    0.0000 C   0  0  0  0  0  0  0  0  0  0  0  0
    0.0000    0.0000    0.0000 N   0  0  0  0  0  0  0  0  0  0  0  0
    0.0000    0.0000    0.0000 C   0  0  0  0  0  0  0  0  0  0  0  0
    0.0000    0.0000    0.0000 C   0  0  0  0  0  0  0  0  0  0  0  0
    0.0000    0.0000    0.0000 C   0  0  0  0  0  0  0  0  0  0  0  0
    0.0000    0.0000    0.0000 C   0  0  0  0  0  0  0  0  0  0  0  0
    0.0000    0.0000    0.0000 C   0  0  0  0  0  0  0  0  0  0  0  0
    0.0000    0.0000    0.0000 C   0  0  0  0  0  0  0  0  0  0  0  0
    0.0000    0.0000    0.0000 C   0  0  0  0  0  0  0  0  0  0  0  0
    0.0000    0.0000    0.0000 O   0  0  0  0  0  0  0  0  0  0  0  0
    0.0000    0.0000    0.0000 C   0  0  0  0  0  0  0  0  0  0  0  0
    0.0000    0.0000    0.0000 C   0  0  0  0  0  0  0  0  0  0  0  0
    0.0000    0.0000    0.0000 C   0  0  0  0  0  0  0  0  0  0  0  0
    0.0000    0.0000    0.0000 C   0  0  0  0  0  0  0  0  0  0  0  0
    0.0000    0.0000    0.0000 C   0  0  0  0  0  0  0  0  0  0  0  0
    0.0000    0.0000    0.0000 C   0  0  0  0  0  0  0  0  0  0  0  0
    0.0000    0.0000    0.0000 C   0  0  0  0  0  0  0  0  0  0  0  0
    0.0000    0.0000    0.0000 C   0  0  0  0  0  0  0  0  0  0  0  0
    0.0000    0.0000    0.0000 C   0  0  0  0  0  0  0  0  0  0  0  0
    0.0000    0.0000    0.0000 C   0  0  0  0  0  0  0  0  0  0  0  0
    0.0000    0.0000    0.0000 C   0  0  0  0  0  0  0  0  0  0  0  0
    0.0000    0.0000    0.0000 C   0  0  0  0  0  0  0  0  0  0  0  0
    0.0000    0.0000    0.0000 C   0  0  0  0  0  0  0  0  0  0  0  0
    0.0000    0.0000    0.0000 C   0  0  0  0  0  0  0  0  0  0  0  0
    0.0000    0.0000    0.0000 N   0  0  0  0  0  0  0  0  0  0  0  0
    0.0000    0.0000    0.0000 C   0  0  0  0  0  0  0  0  0  0  0  0
    0.0000    0.0000    0.0000 C   0  0  0  0  0  0  0  0  0  0  0  0
    0.0000    0.0000    0.0000 C   0  0  0  0  0  0  0  0  0  0  0  0
    0.0000    0.0000    0.0000 C   0  0  0  0  0  0  0  0  0  0  0  0
    0.0000    0.0000    0.0000 C   0  0  0  0  0  0  0  0  0  0  0  0
    0.0000    0.0000    0.0000 C   0  0  0  0  0  0  0  0  0  0  0  0
    0.0000    0.0000    0.0000 C   0  0  0  0  0  0  0  0  0  0  0  0
  1  2  2  0
  2  3  1  0
  3  4  1  0
  4  5  1  0
  5  6  1  0
  6  7  1  0
  7  8  1  0
  8  9  1  0
  9 10  1  0
 10 11  2  0
 10 12  1  0
 12 13  1  0
 13 14  2  0
 14 15  1  0
 15 16  2  0
 16 17  1  0
 17 18  1  0
 18 19  1  0
 19 20  1  0
 20 21  1  0
 21 22  1  0
 22 23  1  0
 23 24  1  0
 24 25  1  0
 25 26  1  0
 26 27  1  0
 27 28  1  0
 28 29  1  0
 29 30  1  0
 30 31  1  0
 31 32  1  0
 24 33  1  0
 33 34  2  0
  2 35  1  0
 35 36  1  0
 36 37  2  0
 37 38  1  0
 38 39  2  0
 39 40  1  0
 40 41  1  0
 41 42  1  0
 42 43  1  0
 43 44  1  0
 44 45  1  0
 45 46  1  0
 46 47  1  0
 47 48  1  0
 48 49  1  0
 49 50  1  0
 50 51  1  0
 51 52  1  0
 52 53  1  0
 53 54  1  0
 54 55  1  0
 47 56  1  0
 56 57  2  0
 34 13  1  0
 33 16  1  0
 27 18  1  0
 24 19  1  0
 32 29  1  0
 57 36  1  0
 56 39  1  0
 50 41  1  0
 47 42  1  0
 55 52  1  0
M  END
>  <pIC50>  (146) 
6.44

>  <ChEMBL_ID>  (146) 
CHEMBL346436

>  <document_journal>  (146) 
J. Med. Chem.

>  <bao_endpoint>  (146) 
BAO_0000190

>  <potential_duplicate>  (146) 
False

>  <uo_units>  (146) 
UO_0000065

>  <canonical_smiles>  (146) 
O=C(CCCCCCCC(=O)Oc1ccc2C[C@@H]3[C@@H]4CCCC[C@]4(CCN3CC5CCC5)c2c1)Oc6ccc7C[C@@H]8[C@@H]9CCCC[C@]9(CCN8CC%10CCC%10)c7c6

>  <parent_molecule_chembl_id>  (146) 
CHEMBL346436

>  <assay_type>  (146) 
B

>  <src_id>  (146) 
1

>  <ligand_efficiency>  (146) 
{u'le': u'0.15', u'bei': u'8.31', u'sei': u'10.91', u'lle': u'-5.36'}

>  <standard_flag>  (146) 
True

>  <molecule_chembl_id>  (146) 
CHEMBL346436

>  <target_organism>  (146) 
Homo sapiens

>  <standard_units>  (146) 
nM

>  <record_id>  (146) 
290079

>  <document_chembl_id>  (146) 
CHEMBL1145905

>  <bao_format>  (146) 
BAO_0000019

>  <data_validity_description>  (146) 
None

>  <activity_id>  (146) 
749389

>  <standard_type>  (146) 
IC50

>  <target_chembl_id>  (146) 
CHEMBL233

>  <data_validity_comment>  (146) 
None

>  <published_value>  (146) 
360

>  <document_year>  (146) 
2003

>  <target_pref_name>  (146) 
Mu opioid receptor

>  <assay_chembl_id>  (146) 
CHEMBL754564

>  <standard_relation>  (146) 
=

>  <assay_description>  (146) 
Inhibitory activity was determined in stimulating [35S]-GTP-gamma S binding mediated by the Opioid receptor mu 1 in chinese Hamster Ovary (CHO)membranes

>  <published_relation>  (146) 
=

>  <standard_value>  (146) 
360

>  <qudt_units>  (146) 
http://www.openphacts.org/units/Nanomolar

>  <target_tax_id>  (146) 
9606

>  <bao_label>  (146) 
assay format

>  <published_units>  (146) 
nM

>  <pchembl_value>  (146) 
6.44

>  <published_type>  (146) 
IC50

>  <activity_comment>  (146) 
None

$$$$

     RDKit          

 47 48  0  0  0  0  0  0  0  0999 V2000
    0.0000    0.0000    0.0000 C   0  0  0  0  0  0  0  0  0  0  0  0
    0.0000    0.0000    0.0000 C   0  0  0  0  0  0  0  0  0  0  0  0
    0.0000    0.0000    0.0000 C   0  0  0  0  0  0  0  0  0  0  0  0
    0.0000    0.0000    0.0000 N   0  0  0  0  0  0  0  0  0  0  0  0
    0.0000    0.0000    0.0000 C   0  0  0  0  0  0  0  0  0  0  0  0
    0.0000    0.0000    0.0000 O   0  0  0  0  0  0  0  0  0  0  0  0
    0.0000    0.0000    0.0000 N   0  0  0  0  0  0  0  0  0  0  0  0
    0.0000    0.0000    0.0000 C   0  0  0  0  0  0  0  0  0  0  0  0
    0.0000    0.0000    0.0000 C   0  0  0  0  0  0  0  0  0  0  0  0
    0.0000    0.0000    0.0000 O   0  0  0  0  0  0  0  0  0  0  0  0
    0.0000    0.0000    0.0000 N   0  0  0  0  0  0  0  0  0  0  0  0
    0.0000    0.0000    0.0000 C   0  0  0  0  0  0  0  0  0  0  0  0
    0.0000    0.0000    0.0000 C   0  0  0  0  0  0  0  0  0  0  0  0
    0.0000    0.0000    0.0000 O   0  0  0  0  0  0  0  0  0  0  0  0
    0.0000    0.0000    0.0000 N   0  0  0  0  0  0  0  0  0  0  0  0
    0.0000    0.0000    0.0000 C   0  0  0  0  0  0  0  0  0  0  0  0
    0.0000    0.0000    0.0000 C   0  0  0  0  0  0  0  0  0  0  0  0
    0.0000    0.0000    0.0000 C   0  0  0  0  0  0  0  0  0  0  0  0
    0.0000    0.0000    0.0000 C   0  0  0  0  0  0  0  0  0  0  0  0
    0.0000    0.0000    0.0000 C   0  0  0  0  0  0  0  0  0  0  0  0
    0.0000    0.0000    0.0000 C   0  0  0  0  0  0  0  0  0  0  0  0
    0.0000    0.0000    0.0000 C   0  0  0  0  0  0  0  0  0  0  0  0
    0.0000    0.0000    0.0000 C   0  0  0  0  0  0  0  0  0  0  0  0
    0.0000    0.0000    0.0000 C   0  0  0  0  0  0  0  0  0  0  0  0
    0.0000    0.0000    0.0000 O   0  0  0  0  0  0  0  0  0  0  0  0
    0.0000    0.0000    0.0000 N   0  0  0  0  0  0  0  0  0  0  0  0
    0.0000    0.0000    0.0000 C   0  0  0  0  0  0  0  0  0  0  0  0
    0.0000    0.0000    0.0000 C   0  0  0  0  0  0  0  0  0  0  0  0
    0.0000    0.0000    0.0000 O   0  0  0  0  0  0  0  0  0  0  0  0
    0.0000    0.0000    0.0000 O   0  0  0  0  0  0  0  0  0  0  0  0
    0.0000    0.0000    0.0000 C   0  0  0  0  0  0  0  0  0  0  0  0
    0.0000    0.0000    0.0000 C   0  0  0  0  0  0  0  0  0  0  0  0
    0.0000    0.0000    0.0000 C   0  0  0  0  0  0  0  0  0  0  0  0
    0.0000    0.0000    0.0000 S   0  0  0  0  0  0  0  0  0  0  0  0
    0.0000    0.0000    0.0000 C   0  0  0  0  0  0  0  0  0  0  0  0
    0.0000    0.0000    0.0000 C   0  0  0  0  0  0  0  0  0  0  0  0
    0.0000    0.0000    0.0000 C   0  0  0  0  0  0  0  0  0  0  0  0
    0.0000    0.0000    0.0000 S   0  0  0  0  0  0  0  0  0  0  0  0
    0.0000    0.0000    0.0000 C   0  0  0  0  0  0  0  0  0  0  0  0
    0.0000    0.0000    0.0000 C   0  0  0  0  0  0  0  0  0  0  0  0
    0.0000    0.0000    0.0000 C   0  0  0  0  0  0  0  0  0  0  0  0
    0.0000    0.0000    0.0000 C   0  0  0  0  0  0  0  0  0  0  0  0
    0.0000    0.0000    0.0000 C   0  0  0  0  0  0  0  0  0  0  0  0
    0.0000    0.0000    0.0000 O   0  0  0  0  0  0  0  0  0  0  0  0
    0.0000    0.0000    0.0000 C   0  0  0  0  0  0  0  0  0  0  0  0
    0.0000    0.0000    0.0000 C   0  0  0  0  0  0  0  0  0  0  0  0
    0.0000    0.0000    0.0000 C   0  0  0  0  0  0  0  0  0  0  0  0
  1  2  1  0
  2  3  1  0
  3  4  1  0
  3  5  1  0
  5  6  2  0
  5  7  1  0
  7  8  1  0
  8  9  1  0
  9 10  2  0
  9 11  1  0
 11 12  1  0
 12 13  1  0
 13 14  2  0
 13 15  1  0
 15 16  1  0
 16 17  1  0
 17 18  1  0
 18 19  2  0
 19 20  1  0
 20 21  2  0
 21 22  1  0
 22 23  2  0
 16 24  1  0
 24 25  2  0
 24 26  1  0
 26 27  1  0
 27 28  1  0
 28 29  2  0
 28 30  1  0
 27 31  1  0
 31 32  1  0
 31 33  1  0
 31 34  1  0
  8 35  1  0
 35 36  1  0
 35 37  1  0
 35 38  1  0
  2 39  1  0
 39 40  2  0
 40 41  1  0
 40 42  1  0
 42 43  2  0
 43 44  1  0
 43 45  1  0
 45 46  2  0
 46 47  1  0
 23 18  1  0
 46 39  1  0
M  END
>  <pIC50>  (147) 
6.14

>  <ChEMBL_ID>  (147) 
CHEMBL133719

>  <document_journal>  (147) 
J. Med. Chem.

>  <bao_endpoint>  (147) 
BAO_0000190

>  <potential_duplicate>  (147) 
False

>  <uo_units>  (147) 
UO_0000065

>  <canonical_smiles>  (147) 
C[C@H]([C@H](N)C(=O)N[C@H](C(=O)NCC(=O)N[C@@H](Cc1ccccc1)C(=O)N[C@H](C(=O)O)C(C)(C)S)C(C)(C)S)c2c(C)cc(O)cc2C

>  <parent_molecule_chembl_id>  (147) 
CHEMBL133719

>  <assay_type>  (147) 
B

>  <src_id>  (147) 
1

>  <ligand_efficiency>  (147) 
{u'le': u'0.18', u'bei': u'8.9', u'sei': u'2.21', u'lle': u'6.12'}

>  <standard_flag>  (147) 
True

>  <molecule_chembl_id>  (147) 
CHEMBL133719

>  <target_organism>  (147) 
Homo sapiens

>  <standard_units>  (147) 
nM

>  <record_id>  (147) 
258183

>  <document_chembl_id>  (147) 
CHEMBL1145107

>  <bao_format>  (147) 
BAO_0000357

>  <data_validity_description>  (147) 
None

>  <activity_id>  (147) 
832963

>  <standard_type>  (147) 
IC50

>  <target_chembl_id>  (147) 
CHEMBL233

>  <data_validity_comment>  (147) 
None

>  <published_value>  (147) 
720

>  <document_year>  (147) 
2003

>  <target_pref_name>  (147) 
Mu opioid receptor

>  <assay_chembl_id>  (147) 
CHEMBL756439

>  <standard_relation>  (147) 
=

>  <assay_description>  (147) 
Binding affinity towards Opioid receptor mu 1 using [3H]- CTOP as radioligand

>  <published_relation>  (147) 
=

>  <standard_value>  (147) 
720

>  <qudt_units>  (147) 
http://www.openphacts.org/units/Nanomolar

>  <target_tax_id>  (147) 
9606

>  <bao_label>  (147) 
single protein format

>  <published_units>  (147) 
nM

>  <pchembl_value>  (147) 
6.14

>  <published_type>  (147) 
IC50

>  <activity_comment>  (147) 
None

$$$$

     RDKit          

 47 48  0  0  0  0  0  0  0  0999 V2000
    0.0000    0.0000    0.0000 C   0  0  0  0  0  0  0  0  0  0  0  0
    0.0000    0.0000    0.0000 C   0  0  0  0  0  0  0  0  0  0  0  0
    0.0000    0.0000    0.0000 C   0  0  0  0  0  0  0  0  0  0  0  0
    0.0000    0.0000    0.0000 N   0  0  0  0  0  0  0  0  0  0  0  0
    0.0000    0.0000    0.0000 C   0  0  0  0  0  0  0  0  0  0  0  0
    0.0000    0.0000    0.0000 O   0  0  0  0  0  0  0  0  0  0  0  0
    0.0000    0.0000    0.0000 N   0  0  0  0  0  0  0  0  0  0  0  0
    0.0000    0.0000    0.0000 C   0  0  0  0  0  0  0  0  0  0  0  0
    0.0000    0.0000    0.0000 C   0  0  0  0  0  0  0  0  0  0  0  0
    0.0000    0.0000    0.0000 O   0  0  0  0  0  0  0  0  0  0  0  0
    0.0000    0.0000    0.0000 N   0  0  0  0  0  0  0  0  0  0  0  0
    0.0000    0.0000    0.0000 C   0  0  0  0  0  0  0  0  0  0  0  0
    0.0000    0.0000    0.0000 C   0  0  0  0  0  0  0  0  0  0  0  0
    0.0000    0.0000    0.0000 O   0  0  0  0  0  0  0  0  0  0  0  0
    0.0000    0.0000    0.0000 N   0  0  0  0  0  0  0  0  0  0  0  0
    0.0000    0.0000    0.0000 C   0  0  0  0  0  0  0  0  0  0  0  0
    0.0000    0.0000    0.0000 C   0  0  0  0  0  0  0  0  0  0  0  0
    0.0000    0.0000    0.0000 C   0  0  0  0  0  0  0  0  0  0  0  0
    0.0000    0.0000    0.0000 C   0  0  0  0  0  0  0  0  0  0  0  0
    0.0000    0.0000    0.0000 C   0  0  0  0  0  0  0  0  0  0  0  0
    0.0000    0.0000    0.0000 C   0  0  0  0  0  0  0  0  0  0  0  0
    0.0000    0.0000    0.0000 C   0  0  0  0  0  0  0  0  0  0  0  0
    0.0000    0.0000    0.0000 C   0  0  0  0  0  0  0  0  0  0  0  0
    0.0000    0.0000    0.0000 C   0  0  0  0  0  0  0  0  0  0  0  0
    0.0000    0.0000    0.0000 O   0  0  0  0  0  0  0  0  0  0  0  0
    0.0000    0.0000    0.0000 N   0  0  0  0  0  0  0  0  0  0  0  0
    0.0000    0.0000    0.0000 C   0  0  0  0  0  0  0  0  0  0  0  0
    0.0000    0.0000    0.0000 C   0  0  0  0  0  0  0  0  0  0  0  0
    0.0000    0.0000    0.0000 O   0  0  0  0  0  0  0  0  0  0  0  0
    0.0000    0.0000    0.0000 O   0  0  0  0  0  0  0  0  0  0  0  0
    0.0000    0.0000    0.0000 C   0  0  0  0  0  0  0  0  0  0  0  0
    0.0000    0.0000    0.0000 C   0  0  0  0  0  0  0  0  0  0  0  0
    0.0000    0.0000    0.0000 C   0  0  0  0  0  0  0  0  0  0  0  0
    0.0000    0.0000    0.0000 S   0  0  0  0  0  0  0  0  0  0  0  0
    0.0000    0.0000    0.0000 C   0  0  0  0  0  0  0  0  0  0  0  0
    0.0000    0.0000    0.0000 C   0  0  0  0  0  0  0  0  0  0  0  0
    0.0000    0.0000    0.0000 C   0  0  0  0  0  0  0  0  0  0  0  0
    0.0000    0.0000    0.0000 S   0  0  0  0  0  0  0  0  0  0  0  0
    0.0000    0.0000    0.0000 C   0  0  0  0  0  0  0  0  0  0  0  0
    0.0000    0.0000    0.0000 C   0  0  0  0  0  0  0  0  0  0  0  0
    0.0000    0.0000    0.0000 C   0  0  0  0  0  0  0  0  0  0  0  0
    0.0000    0.0000    0.0000 C   0  0  0  0  0  0  0  0  0  0  0  0
    0.0000    0.0000    0.0000 C   0  0  0  0  0  0  0  0  0  0  0  0
    0.0000    0.0000    0.0000 O   0  0  0  0  0  0  0  0  0  0  0  0
    0.0000    0.0000    0.0000 C   0  0  0  0  0  0  0  0  0  0  0  0
    0.0000    0.0000    0.0000 C   0  0  0  0  0  0  0  0  0  0  0  0
    0.0000    0.0000    0.0000 C   0  0  0  0  0  0  0  0  0  0  0  0
  1  2  1  0
  2  3  1  0
  3  4  1  0
  3  5  1  0
  5  6  2  0
  5  7  1  0
  7  8  1  0
  8  9  1  0
  9 10  2  0
  9 11  1  0
 11 12  1  0
 12 13  1  0
 13 14  2  0
 13 15  1  0
 15 16  1  0
 16 17  1  0
 17 18  1  0
 18 19  2  0
 19 20  1  0
 20 21  2  0
 21 22  1  0
 22 23  2  0
 16 24  1  0
 24 25  2  0
 24 26  1  0
 26 27  1  0
 27 28  1  0
 28 29  2  0
 28 30  1  0
 27 31  1  0
 31 32  1  0
 31 33  1  0
 31 34  1  0
  8 35  1  0
 35 36  1  0
 35 37  1  0
 35 38  1  0
  2 39  1  0
 39 40  2  0
 40 41  1  0
 40 42  1  0
 42 43  2  0
 43 44  1  0
 43 45  1  0
 45 46  2  0
 46 47  1  0
 23 18  1  0
 46 39  1  0
M  END
>  <pIC50>  (148) 
4.11

>  <ChEMBL_ID>  (148) 
CHEMBL134652

>  <document_journal>  (148) 
J. Med. Chem.

>  <bao_endpoint>  (148) 
BAO_0000190

>  <potential_duplicate>  (148) 
False

>  <uo_units>  (148) 
UO_0000065

>  <canonical_smiles>  (148) 
C[C@@H]([C@@H](N)C(=O)N[C@H](C(=O)NCC(=O)N[C@@H](Cc1ccccc1)C(=O)N[C@H](C(=O)O)C(C)(C)S)C(C)(C)S)c2c(C)cc(O)cc2C

>  <parent_molecule_chembl_id>  (148) 
CHEMBL134652

>  <assay_type>  (148) 
B

>  <src_id>  (148) 
1

>  <ligand_efficiency>  (148) 
{u'le': u'0.12', u'bei': u'5.96', u'sei': u'1.48', u'lle': u'4.09'}

>  <standard_flag>  (148) 
True

>  <molecule_chembl_id>  (148) 
CHEMBL134652

>  <target_organism>  (148) 
Homo sapiens

>  <standard_units>  (148) 
nM

>  <record_id>  (148) 
258185

>  <document_chembl_id>  (148) 
CHEMBL1145107

>  <bao_format>  (148) 
BAO_0000357

>  <data_validity_description>  (148) 
None

>  <activity_id>  (148) 
836559

>  <standard_type>  (148) 
IC50

>  <target_chembl_id>  (148) 
CHEMBL233

>  <data_validity_comment>  (148) 
None

>  <published_value>  (148) 
77000

>  <document_year>  (148) 
2003

>  <target_pref_name>  (148) 
Mu opioid receptor

>  <assay_chembl_id>  (148) 
CHEMBL756439

>  <standard_relation>  (148) 
=

>  <assay_description>  (148) 
Binding affinity towards Opioid receptor mu 1 using [3H]- CTOP as radioligand

>  <published_relation>  (148) 
=

>  <standard_value>  (148) 
77000

>  <qudt_units>  (148) 
http://www.openphacts.org/units/Nanomolar

>  <target_tax_id>  (148) 
9606

>  <bao_label>  (148) 
single protein format

>  <published_units>  (148) 
nM

>  <pchembl_value>  (148) 
4.11

>  <published_type>  (148) 
IC50

>  <activity_comment>  (148) 
None

$$$$

     RDKit          

 44 46  0  0  0  0  0  0  0  0999 V2000
    0.0000    0.0000    0.0000 C   0  0  0  0  0  0  0  0  0  0  0  0
    0.0000    0.0000    0.0000 C   0  0  0  0  0  0  0  0  0  0  0  0
    0.0000    0.0000    0.0000 C   0  0  0  0  0  0  0  0  0  0  0  0
    0.0000    0.0000    0.0000 S   0  0  0  0  0  0  0  0  0  0  0  0
    0.0000    0.0000    0.0000 S   0  0  0  0  0  0  0  0  0  0  0  0
    0.0000    0.0000    0.0000 C   0  0  0  0  0  0  0  0  0  0  0  0
    0.0000    0.0000    0.0000 C   0  0  0  0  0  0  0  0  0  0  0  0
    0.0000    0.0000    0.0000 C   0  0  0  0  0  0  0  0  0  0  0  0
    0.0000    0.0000    0.0000 C   0  0  0  0  0  0  0  0  0  0  0  0
    0.0000    0.0000    0.0000 N   0  0  0  0  0  0  0  0  0  0  0  0
    0.0000    0.0000    0.0000 C   0  0  0  0  0  0  0  0  0  0  0  0
    0.0000    0.0000    0.0000 O   0  0  0  0  0  0  0  0  0  0  0  0
    0.0000    0.0000    0.0000 C   0  0  0  0  0  0  0  0  0  0  0  0
    0.0000    0.0000    0.0000 N   0  0  0  0  0  0  0  0  0  0  0  0
    0.0000    0.0000    0.0000 C   0  0  0  0  0  0  0  0  0  0  0  0
    0.0000    0.0000    0.0000 C   0  0  0  0  0  0  0  0  0  0  0  0
    0.0000    0.0000    0.0000 C   0  0  0  0  0  0  0  0  0  0  0  0
    0.0000    0.0000    0.0000 C   0  0  0  0  0  0  0  0  0  0  0  0
    0.0000    0.0000    0.0000 C   0  0  0  0  0  0  0  0  0  0  0  0
    0.0000    0.0000    0.0000 O   0  0  0  0  0  0  0  0  0  0  0  0
    0.0000    0.0000    0.0000 C   0  0  0  0  0  0  0  0  0  0  0  0
    0.0000    0.0000    0.0000 C   0  0  0  0  0  0  0  0  0  0  0  0
    0.0000    0.0000    0.0000 C   0  0  0  0  0  0  0  0  0  0  0  0
    0.0000    0.0000    0.0000 O   0  0  0  0  0  0  0  0  0  0  0  0
    0.0000    0.0000    0.0000 N   0  0  0  0  0  0  0  0  0  0  0  0
    0.0000    0.0000    0.0000 C   0  0  0  0  0  0  0  0  0  0  0  0
    0.0000    0.0000    0.0000 C   0  0  0  0  0  0  0  0  0  0  0  0
    0.0000    0.0000    0.0000 O   0  0  0  0  0  0  0  0  0  0  0  0
    0.0000    0.0000    0.0000 N   0  0  0  0  0  0  0  0  0  0  0  0
    0.0000    0.0000    0.0000 C   0  0  0  0  0  0  0  0  0  0  0  0
    0.0000    0.0000    0.0000 C   0  0  0  0  0  0  0  0  0  0  0  0
    0.0000    0.0000    0.0000 C   0  0  0  0  0  0  0  0  0  0  0  0
    0.0000    0.0000    0.0000 C   0  0  0  0  0  0  0  0  0  0  0  0
    0.0000    0.0000    0.0000 C   0  0  0  0  0  0  0  0  0  0  0  0
    0.0000    0.0000    0.0000 C   0  0  0  0  0  0  0  0  0  0  0  0
    0.0000    0.0000    0.0000 C   0  0  0  0  0  0  0  0  0  0  0  0
    0.0000    0.0000    0.0000 C   0  0  0  0  0  0  0  0  0  0  0  0
    0.0000    0.0000    0.0000 C   0  0  0  0  0  0  0  0  0  0  0  0
    0.0000    0.0000    0.0000 O   0  0  0  0  0  0  0  0  0  0  0  0
    0.0000    0.0000    0.0000 N   0  0  0  0  0  0  0  0  0  0  0  0
    0.0000    0.0000    0.0000 C   0  0  0  0  0  0  0  0  0  0  0  0
    0.0000    0.0000    0.0000 C   0  0  0  0  0  0  0  0  0  0  0  0
    0.0000    0.0000    0.0000 O   0  0  0  0  0  0  0  0  0  0  0  0
    0.0000    0.0000    0.0000 O   0  0  0  0  0  0  0  0  0  0  0  0
  1  2  1  0
  2  3  1  0
  2  4  1  0
  4  5  1  0
  5  6  1  0
  6  7  1  0
  6  8  1  0
  6  9  1  0
  9 10  1  0
 10 11  1  0
 11 12  2  0
 11 13  1  0
 13 14  1  0
 13 15  1  0
 15 16  1  0
 16 17  2  0
 17 18  1  0
 18 19  2  0
 19 20  1  0
 19 21  1  0
 21 22  2  0
  9 23  1  0
 23 24  2  0
 23 25  1  0
 25 26  1  0
 26 27  1  0
 27 28  2  0
 27 29  1  0
 29 30  1  0
 30 31  1  0
 31 32  1  0
 32 33  2  0
 33 34  1  0
 34 35  2  0
 35 36  1  0
 36 37  2  0
 30 38  1  0
 38 39  2  0
 38 40  1  0
 40 41  1  0
 41 42  1  0
 42 43  2  0
 42 44  1  0
 41  2  1  0
 22 16  1  0
 37 32  1  0
M  END
>  <pIC50>  (149) 
6.22

>  <ChEMBL_ID>  (149) 
CHEMBL294616

>  <document_journal>  (149) 
J. Med. Chem.

>  <bao_endpoint>  (149) 
BAO_0000190

>  <potential_duplicate>  (149) 
False

>  <uo_units>  (149) 
UO_0000065

>  <canonical_smiles>  (149) 
CC1(C)SSC(C)(C)[C@@H](NC(=O)[C@@H](N)Cc2ccc(O)cc2)C(=O)NCC(=O)N[C@H](Cc3ccccc3)C(=O)N[C@H]1C(=O)O

>  <parent_molecule_chembl_id>  (149) 
CHEMBL294616

>  <assay_type>  (149) 
B

>  <src_id>  (149) 
1

>  <ligand_efficiency>  (149) 
{u'le': u'0.19', u'bei': u'9.62', u'sei': u'2.48', u'lle': u'7.32'}

>  <standard_flag>  (149) 
True

>  <molecule_chembl_id>  (149) 
CHEMBL294616

>  <target_organism>  (149) 
Homo sapiens

>  <standard_units>  (149) 
nM

>  <record_id>  (149) 
258182

>  <document_chembl_id>  (149) 
CHEMBL1145107

>  <bao_format>  (149) 
BAO_0000357

>  <data_validity_description>  (149) 
None

>  <activity_id>  (149) 
840242

>  <standard_type>  (149) 
IC50

>  <target_chembl_id>  (149) 
CHEMBL233

>  <data_validity_comment>  (149) 
None

>  <published_value>  (149) 
610

>  <document_year>  (149) 
2003

>  <target_pref_name>  (149) 
Mu opioid receptor

>  <assay_chembl_id>  (149) 
CHEMBL756439

>  <standard_relation>  (149) 
=

>  <assay_description>  (149) 
Binding affinity towards Opioid receptor mu 1 using [3H]- CTOP as radioligand

>  <published_relation>  (149) 
=

>  <standard_value>  (149) 
610

>  <qudt_units>  (149) 
http://www.openphacts.org/units/Nanomolar

>  <target_tax_id>  (149) 
9606

>  <bao_label>  (149) 
single protein format

>  <published_units>  (149) 
nM

>  <pchembl_value>  (149) 
6.22

>  <published_type>  (149) 
IC50

>  <activity_comment>  (149) 
None

$$$$

     RDKit          

 47 48  0  0  0  0  0  0  0  0999 V2000
    0.0000    0.0000    0.0000 C   0  0  0  0  0  0  0  0  0  0  0  0
    0.0000    0.0000    0.0000 C   0  0  0  0  0  0  0  0  0  0  0  0
    0.0000    0.0000    0.0000 C   0  0  0  0  0  0  0  0  0  0  0  0
    0.0000    0.0000    0.0000 N   0  0  0  0  0  0  0  0  0  0  0  0
    0.0000    0.0000    0.0000 C   0  0  0  0  0  0  0  0  0  0  0  0
    0.0000    0.0000    0.0000 O   0  0  0  0  0  0  0  0  0  0  0  0
    0.0000    0.0000    0.0000 N   0  0  0  0  0  0  0  0  0  0  0  0
    0.0000    0.0000    0.0000 C   0  0  0  0  0  0  0  0  0  0  0  0
    0.0000    0.0000    0.0000 C   0  0  0  0  0  0  0  0  0  0  0  0
    0.0000    0.0000    0.0000 O   0  0  0  0  0  0  0  0  0  0  0  0
    0.0000    0.0000    0.0000 N   0  0  0  0  0  0  0  0  0  0  0  0
    0.0000    0.0000    0.0000 C   0  0  0  0  0  0  0  0  0  0  0  0
    0.0000    0.0000    0.0000 C   0  0  0  0  0  0  0  0  0  0  0  0
    0.0000    0.0000    0.0000 O   0  0  0  0  0  0  0  0  0  0  0  0
    0.0000    0.0000    0.0000 N   0  0  0  0  0  0  0  0  0  0  0  0
    0.0000    0.0000    0.0000 C   0  0  0  0  0  0  0  0  0  0  0  0
    0.0000    0.0000    0.0000 C   0  0  0  0  0  0  0  0  0  0  0  0
    0.0000    0.0000    0.0000 C   0  0  0  0  0  0  0  0  0  0  0  0
    0.0000    0.0000    0.0000 C   0  0  0  0  0  0  0  0  0  0  0  0
    0.0000    0.0000    0.0000 C   0  0  0  0  0  0  0  0  0  0  0  0
    0.0000    0.0000    0.0000 C   0  0  0  0  0  0  0  0  0  0  0  0
    0.0000    0.0000    0.0000 C   0  0  0  0  0  0  0  0  0  0  0  0
    0.0000    0.0000    0.0000 C   0  0  0  0  0  0  0  0  0  0  0  0
    0.0000    0.0000    0.0000 C   0  0  0  0  0  0  0  0  0  0  0  0
    0.0000    0.0000    0.0000 O   0  0  0  0  0  0  0  0  0  0  0  0
    0.0000    0.0000    0.0000 N   0  0  0  0  0  0  0  0  0  0  0  0
    0.0000    0.0000    0.0000 C   0  0  0  0  0  0  0  0  0  0  0  0
    0.0000    0.0000    0.0000 C   0  0  0  0  0  0  0  0  0  0  0  0
    0.0000    0.0000    0.0000 O   0  0  0  0  0  0  0  0  0  0  0  0
    0.0000    0.0000    0.0000 O   0  0  0  0  0  0  0  0  0  0  0  0
    0.0000    0.0000    0.0000 C   0  0  0  0  0  0  0  0  0  0  0  0
    0.0000    0.0000    0.0000 C   0  0  0  0  0  0  0  0  0  0  0  0
    0.0000    0.0000    0.0000 C   0  0  0  0  0  0  0  0  0  0  0  0
    0.0000    0.0000    0.0000 S   0  0  0  0  0  0  0  0  0  0  0  0
    0.0000    0.0000    0.0000 C   0  0  0  0  0  0  0  0  0  0  0  0
    0.0000    0.0000    0.0000 C   0  0  0  0  0  0  0  0  0  0  0  0
    0.0000    0.0000    0.0000 C   0  0  0  0  0  0  0  0  0  0  0  0
    0.0000    0.0000    0.0000 S   0  0  0  0  0  0  0  0  0  0  0  0
    0.0000    0.0000    0.0000 C   0  0  0  0  0  0  0  0  0  0  0  0
    0.0000    0.0000    0.0000 C   0  0  0  0  0  0  0  0  0  0  0  0
    0.0000    0.0000    0.0000 C   0  0  0  0  0  0  0  0  0  0  0  0
    0.0000    0.0000    0.0000 C   0  0  0  0  0  0  0  0  0  0  0  0
    0.0000    0.0000    0.0000 C   0  0  0  0  0  0  0  0  0  0  0  0
    0.0000    0.0000    0.0000 O   0  0  0  0  0  0  0  0  0  0  0  0
    0.0000    0.0000    0.0000 C   0  0  0  0  0  0  0  0  0  0  0  0
    0.0000    0.0000    0.0000 C   0  0  0  0  0  0  0  0  0  0  0  0
    0.0000    0.0000    0.0000 C   0  0  0  0  0  0  0  0  0  0  0  0
  1  2  1  0
  2  3  1  0
  3  4  1  0
  3  5  1  0
  5  6  2  0
  5  7  1  0
  7  8  1  0
  8  9  1  0
  9 10  2  0
  9 11  1  0
 11 12  1  0
 12 13  1  0
 13 14  2  0
 13 15  1  0
 15 16  1  0
 16 17  1  0
 17 18  1  0
 18 19  2  0
 19 20  1  0
 20 21  2  0
 21 22  1  0
 22 23  2  0
 16 24  1  0
 24 25  2  0
 24 26  1  0
 26 27  1  0
 27 28  1  0
 28 29  2  0
 28 30  1  0
 27 31  1  0
 31 32  1  0
 31 33  1  0
 31 34  1  0
  8 35  1  0
 35 36  1  0
 35 37  1  0
 35 38  1  0
  2 39  1  0
 39 40  2  0
 40 41  1  0
 40 42  1  0
 42 43  2  0
 43 44  1  0
 43 45  1  0
 45 46  2  0
 46 47  1  0
 23 18  1  0
 46 39  1  0
M  END
>  <pIC50>  (150) 
5.37

>  <ChEMBL_ID>  (150) 
CHEMBL334369

>  <document_journal>  (150) 
J. Med. Chem.

>  <bao_endpoint>  (150) 
BAO_0000190

>  <potential_duplicate>  (150) 
False

>  <uo_units>  (150) 
UO_0000065

>  <canonical_smiles>  (150) 
C[C@@H]([C@H](N)C(=O)N[C@H](C(=O)NCC(=O)N[C@@H](Cc1ccccc1)C(=O)N[C@H](C(=O)O)C(C)(C)S)C(C)(C)S)c2c(C)cc(O)cc2C

>  <parent_molecule_chembl_id>  (150) 
CHEMBL334369

>  <assay_type>  (150) 
B

>  <src_id>  (150) 
1

>  <ligand_efficiency>  (150) 
{u'le': u'0.16', u'bei': u'7.78', u'sei': u'1.93', u'lle': u'5.35'}

>  <standard_flag>  (150) 
True

>  <molecule_chembl_id>  (150) 
CHEMBL334369

>  <target_organism>  (150) 
Homo sapiens

>  <standard_units>  (150) 
nM

>  <record_id>  (150) 
258184

>  <document_chembl_id>  (150) 
CHEMBL1145107

>  <bao_format>  (150) 
BAO_0000357

>  <data_validity_description>  (150) 
None

>  <activity_id>  (150) 
855457

>  <standard_type>  (150) 
IC50

>  <target_chembl_id>  (150) 
CHEMBL233

>  <data_validity_comment>  (150) 
None

>  <published_value>  (150) 
4300

>  <document_year>  (150) 
2003

>  <target_pref_name>  (150) 
Mu opioid receptor

>  <assay_chembl_id>  (150) 
CHEMBL756439

>  <standard_relation>  (150) 
=

>  <assay_description>  (150) 
Binding affinity towards Opioid receptor mu 1 using [3H]- CTOP as radioligand

>  <published_relation>  (150) 
=

>  <standard_value>  (150) 
4300

>  <qudt_units>  (150) 
http://www.openphacts.org/units/Nanomolar

>  <target_tax_id>  (150) 
9606

>  <bao_label>  (150) 
single protein format

>  <published_units>  (150) 
nM

>  <pchembl_value>  (150) 
5.37

>  <published_type>  (150) 
IC50

>  <activity_comment>  (150) 
None

$$$$

     RDKit          

 37 38  0  0  0  0  0  0  0  0999 V2000
    0.0000    0.0000    0.0000 C   0  0  0  0  0  0  0  0  0  0  0  0
    0.0000    0.0000    0.0000 C   0  0  0  0  0  0  0  0  0  0  0  0
    0.0000    0.0000    0.0000 N   0  0  0  0  0  0  0  0  0  0  0  0
    0.0000    0.0000    0.0000 C   0  0  0  0  0  0  0  0  0  0  0  0
    0.0000    0.0000    0.0000 O   0  0  0  0  0  0  0  0  0  0  0  0
    0.0000    0.0000    0.0000 C   0  0  0  0  0  0  0  0  0  0  0  0
    0.0000    0.0000    0.0000 N   0  0  0  0  0  0  0  0  0  0  0  0
    0.0000    0.0000    0.0000 C   0  0  0  0  0  0  0  0  0  0  0  0
    0.0000    0.0000    0.0000 C   0  0  0  0  0  0  0  0  0  0  0  0
    0.0000    0.0000    0.0000 C   0  0  0  0  0  0  0  0  0  0  0  0
    0.0000    0.0000    0.0000 C   0  0  0  0  0  0  0  0  0  0  0  0
    0.0000    0.0000    0.0000 C   0  0  0  0  0  0  0  0  0  0  0  0
    0.0000    0.0000    0.0000 O   0  0  0  0  0  0  0  0  0  0  0  0
    0.0000    0.0000    0.0000 C   0  0  0  0  0  0  0  0  0  0  0  0
    0.0000    0.0000    0.0000 C   0  0  0  0  0  0  0  0  0  0  0  0
    0.0000    0.0000    0.0000 C   0  0  0  0  0  0  0  0  0  0  0  0
    0.0000    0.0000    0.0000 O   0  0  0  0  0  0  0  0  0  0  0  0
    0.0000    0.0000    0.0000 N   0  0  0  0  0  0  0  0  0  0  0  0
    0.0000    0.0000    0.0000 C   0  0  0  0  0  0  0  0  0  0  0  0
    0.0000    0.0000    0.0000 C   0  0  0  0  0  0  0  0  0  0  0  0
    0.0000    0.0000    0.0000 O   0  0  0  0  0  0  0  0  0  0  0  0
    0.0000    0.0000    0.0000 N   0  0  0  0  0  0  0  0  0  0  0  0
    0.0000    0.0000    0.0000 C   0  0  0  0  0  0  0  0  0  0  0  0
    0.0000    0.0000    0.0000 C   0  0  0  0  0  0  0  0  0  0  0  0
    0.0000    0.0000    0.0000 C   0  0  0  0  0  0  0  0  0  0  0  0
    0.0000    0.0000    0.0000 C   0  0  0  0  0  0  0  0  0  0  0  0
    0.0000    0.0000    0.0000 C   0  0  0  0  0  0  0  0  0  0  0  0
    0.0000    0.0000    0.0000 C   0  0  0  0  0  0  0  0  0  0  0  0
    0.0000    0.0000    0.0000 C   0  0  0  0  0  0  0  0  0  0  0  0
    0.0000    0.0000    0.0000 C   0  0  0  0  0  0  0  0  0  0  0  0
    0.0000    0.0000    0.0000 C   0  0  0  0  0  0  0  0  0  0  0  0
    0.0000    0.0000    0.0000 C   0  0  0  0  0  0  0  0  0  0  0  0
    0.0000    0.0000    0.0000 O   0  0  0  0  0  0  0  0  0  0  0  0
    0.0000    0.0000    0.0000 N   0  0  0  0  0  0  0  0  0  0  0  0
    0.0000    0.0000    0.0000 C   0  0  0  0  0  0  0  0  0  0  0  0
    0.0000    0.0000    0.0000 C   0  0  0  0  0  0  0  0  0  0  0  0
    0.0000    0.0000    0.0000 O   0  0  0  0  0  0  0  0  0  0  0  0
  1  2  1  0
  2  3  1  0
  3  4  1  0
  4  5  2  0
  4  6  1  0
  6  7  1  0
  6  8  1  0
  8  9  1  0
  9 10  2  0
 10 11  1  0
 11 12  2  0
 12 13  1  0
 12 14  1  0
 14 15  2  0
  2 16  1  0
 16 17  2  0
 16 18  1  0
 18 19  1  0
 19 20  1  0
 20 21  2  0
 20 22  1  0
 22 23  1  0
 22 24  1  0
 24 25  1  0
 25 26  1  0
 26 27  2  0
 27 28  1  0
 28 29  2  0
 29 30  1  0
 30 31  2  0
 24 32  1  0
 32 33  2  0
 32 34  1  0
 34 35  1  0
 35 36  1  0
 36 37  1  0
 15  9  1  0
 31 26  1  0
M  END
>  <pIC50>  (151) 
8.71181818182

>  <ChEMBL_ID>  (151) 
CHEMBL38874

>  <document_journal>  (151) 
J. Med. Chem.

>  <bao_endpoint>  (151) 
BAO_0000190

>  <potential_duplicate>  (151) 
False

>  <uo_units>  (151) 
UO_0000065

>  <canonical_smiles>  (151) 
C[C@@H](NC(=O)[C@@H](N)Cc1ccc(O)cc1)C(=O)NCC(=O)N(C)[C@@H](Cc2ccccc2)C(=O)NCCO

>  <parent_molecule_chembl_id>  (151) 
CHEMBL38874

>  <assay_type>  (151) 
B

>  <src_id>  (151) 
1

>  <ligand_efficiency>  (151) 
{u'le': u'0.32', u'bei': u'17.13', u'sei': u'5.05', u'lle': u'9.22'}

>  <standard_flag>  (151) 
True

>  <molecule_chembl_id>  (151) 
CHEMBL38874

>  <target_organism>  (151) 
Homo sapiens

>  <standard_units>  (151) 
nM

>  <record_id>  (151) 
45185

>  <document_chembl_id>  (151) 
CHEMBL1135899

>  <bao_format>  (151) 
BAO_0000357

>  <data_validity_description>  (151) 
None

>  <activity_id>  (151) 
860125

>  <standard_type>  (151) 
IC50

>  <target_chembl_id>  (151) 
CHEMBL233

>  <data_validity_comment>  (151) 
None

>  <published_value>  (151) 
1.6

>  <document_year>  (151) 
2002

>  <target_pref_name>  (151) 
Mu opioid receptor

>  <assay_chembl_id>  (151) 
CHEMBL872833

>  <standard_relation>  (151) 
=

>  <assay_description>  (151) 
Binding activity against human Opioid receptor mu 1 using [3H]DAMGO as a radioligand

>  <published_relation>  (151) 
=

>  <standard_value>  (151) 
1.6

>  <qudt_units>  (151) 
http://www.openphacts.org/units/Nanomolar

>  <target_tax_id>  (151) 
9606

>  <bao_label>  (151) 
single protein format

>  <published_units>  (151) 
nM

>  <pchembl_value>  (151) 
8.8

>  <published_type>  (151) 
IC50

>  <activity_comment>  (151) 
None

$$$$

     RDKit          

 31 34  0  0  0  0  0  0  0  0999 V2000
    0.0000    0.0000    0.0000 C   0  0  0  0  0  0  0  0  0  0  0  0
    0.0000    0.0000    0.0000 C   0  0  0  0  0  0  0  0  0  0  0  0
    0.0000    0.0000    0.0000 N   0  0  0  0  0  0  0  0  0  0  0  0
    0.0000    0.0000    0.0000 C   0  0  0  0  0  0  0  0  0  0  0  0
    0.0000    0.0000    0.0000 C   0  0  0  0  0  0  0  0  0  0  0  0
    0.0000    0.0000    0.0000 C   0  0  0  0  0  0  0  0  0  0  0  0
    0.0000    0.0000    0.0000 O   0  0  0  0  0  0  0  0  0  0  0  0
    0.0000    0.0000    0.0000 C   0  0  0  0  0  0  0  0  0  0  0  0
    0.0000    0.0000    0.0000 C   0  0  0  0  0  0  0  0  0  0  0  0
    0.0000    0.0000    0.0000 C   0  0  0  0  0  0  0  0  0  0  0  0
    0.0000    0.0000    0.0000 C   0  0  0  0  0  0  0  0  0  0  0  0
    0.0000    0.0000    0.0000 C   0  0  0  0  0  0  0  0  0  0  0  0
    0.0000    0.0000    0.0000 C   0  0  0  0  0  0  0  0  0  0  0  0
    0.0000    0.0000    0.0000 C   0  0  0  0  0  0  0  0  0  0  0  0
    0.0000    0.0000    0.0000 N   0  0  0  0  0  0  0  0  0  0  0  0
    0.0000    0.0000    0.0000 C   0  0  0  0  0  0  0  0  0  0  0  0
    0.0000    0.0000    0.0000 C   0  0  0  0  0  0  0  0  0  0  0  0
    0.0000    0.0000    0.0000 N   0  0  0  0  0  0  0  0  0  0  0  0
    0.0000    0.0000    0.0000 C   0  0  0  0  0  0  0  0  0  0  0  0
    0.0000    0.0000    0.0000 C   0  0  0  0  0  0  0  0  0  0  0  0
    0.0000    0.0000    0.0000 C   0  0  0  0  0  0  0  0  0  0  0  0
    0.0000    0.0000    0.0000 C   0  0  0  0  0  0  0  0  0  0  0  0
    0.0000    0.0000    0.0000 C   0  0  0  0  0  0  0  0  0  0  0  0
    0.0000    0.0000    0.0000 C   0  0  0  0  0  0  0  0  0  0  0  0
    0.0000    0.0000    0.0000 C   0  0  0  0  0  0  0  0  0  0  0  0
    0.0000    0.0000    0.0000 C   0  0  0  0  0  0  0  0  0  0  0  0
    0.0000    0.0000    0.0000 C   0  0  0  0  0  0  0  0  0  0  0  0
    0.0000    0.0000    0.0000 C   0  0  0  0  0  0  0  0  0  0  0  0
    0.0000    0.0000    0.0000 C   0  0  0  0  0  0  0  0  0  0  0  0
    0.0000    0.0000    0.0000 O   0  0  0  0  0  0  0  0  0  0  0  0
    0.0000    0.0000    0.0000 C   0  0  0  0  0  0  0  0  0  0  0  0
  1  2  1  0
  2  3  1  0
  3  4  1  0
  4  5  1  0
  3  6  1  0
  6  7  2  0
  6  8  1  0
  8  9  2  0
  9 10  1  0
 10 11  2  0
 11 12  1  0
 12 13  2  0
 11 14  1  0
 14 15  1  0
 15 16  1  0
 16 17  1  0
 17 18  1  0
 18 19  1  0
 19 20  1  0
 14 21  1  0
 21 22  2  0
 22 23  1  0
 23 24  2  0
 24 25  1  0
 25 26  1  0
 26 27  1  0
 27 28  1  0
 27 29  1  0
 27 30  1  0
 30 31  1  0
 13  8  1  0
 20 15  1  0
 31 21  1  0
 31 25  2  0
M  END
>  <pIC50>  (152) 
6.11

>  <ChEMBL_ID>  (152) 
CHEMBL127761

>  <document_journal>  (152) 
J. Med. Chem.

>  <bao_endpoint>  (152) 
BAO_0000190

>  <potential_duplicate>  (152) 
False

>  <uo_units>  (152) 
UO_0000065

>  <canonical_smiles>  (152) 
CCN(CC)C(=O)c1ccc(cc1)C(N2CCNCC2)c3cccc4CC(C)(C)Oc34

>  <parent_molecule_chembl_id>  (152) 
CHEMBL127761

>  <assay_type>  (152) 
B

>  <src_id>  (152) 
1

>  <ligand_efficiency>  (152) 
{u'le': u'0.27', u'bei': u'14.48', u'sei': u'13.62', u'lle': u'2.42'}

>  <standard_flag>  (152) 
True

>  <molecule_chembl_id>  (152) 
CHEMBL127761

>  <target_organism>  (152) 
Homo sapiens

>  <standard_units>  (152) 
nM

>  <record_id>  (152) 
242564

>  <document_chembl_id>  (152) 
CHEMBL1133468

>  <bao_format>  (152) 
BAO_0000357

>  <data_validity_description>  (152) 
None

>  <activity_id>  (152) 
865905

>  <standard_type>  (152) 
IC50

>  <target_chembl_id>  (152) 
CHEMBL233

>  <data_validity_comment>  (152) 
None

>  <published_value>  (152) 
785

>  <document_year>  (152) 
2000

>  <target_pref_name>  (152) 
Mu opioid receptor

>  <assay_chembl_id>  (152) 
CHEMBL749744

>  <standard_relation>  (152) 
=

>  <assay_description>  (152) 
Binding affinity against cloned human Opioid receptor mu 1 using [125I]FK33824 as radioligand

>  <published_relation>  (152) 
=

>  <standard_value>  (152) 
785

>  <qudt_units>  (152) 
http://www.openphacts.org/units/Nanomolar

>  <target_tax_id>  (152) 
9606

>  <bao_label>  (152) 
single protein format

>  <published_units>  (152) 
nM

>  <pchembl_value>  (152) 
6.11

>  <published_type>  (152) 
IC50

>  <activity_comment>  (152) 
None

$$$$

     RDKit          

 29 31  0  0  0  0  0  0  0  0999 V2000
    0.0000    0.0000    0.0000 C   0  0  0  0  0  0  0  0  0  0  0  0
    0.0000    0.0000    0.0000 C   0  0  0  0  0  0  0  0  0  0  0  0
    0.0000    0.0000    0.0000 N   0  0  0  0  0  0  0  0  0  0  0  0
    0.0000    0.0000    0.0000 C   0  0  0  0  0  0  0  0  0  0  0  0
    0.0000    0.0000    0.0000 C   0  0  0  0  0  0  0  0  0  0  0  0
    0.0000    0.0000    0.0000 C   0  0  0  0  0  0  0  0  0  0  0  0
    0.0000    0.0000    0.0000 O   0  0  0  0  0  0  0  0  0  0  0  0
    0.0000    0.0000    0.0000 C   0  0  0  0  0  0  0  0  0  0  0  0
    0.0000    0.0000    0.0000 C   0  0  0  0  0  0  0  0  0  0  0  0
    0.0000    0.0000    0.0000 C   0  0  0  0  0  0  0  0  0  0  0  0
    0.0000    0.0000    0.0000 C   0  0  0  0  0  0  0  0  0  0  0  0
    0.0000    0.0000    0.0000 C   0  0  0  0  0  0  0  0  0  0  0  0
    0.0000    0.0000    0.0000 C   0  0  0  0  0  0  0  0  0  0  0  0
    0.0000    0.0000    0.0000 C   0  0  0  0  0  0  0  0  0  0  0  0
    0.0000    0.0000    0.0000 N   0  0  0  0  0  0  0  0  0  0  0  0
    0.0000    0.0000    0.0000 C   0  0  0  0  0  0  0  0  0  0  0  0
    0.0000    0.0000    0.0000 C   0  0  0  0  0  0  0  0  0  0  0  0
    0.0000    0.0000    0.0000 N   0  0  0  0  0  0  0  0  0  0  0  0
    0.0000    0.0000    0.0000 C   0  0  0  0  0  0  0  0  0  0  0  0
    0.0000    0.0000    0.0000 C   0  0  0  0  0  0  0  0  0  0  0  0
    0.0000    0.0000    0.0000 C   0  0  0  0  0  0  0  0  0  0  0  0
    0.0000    0.0000    0.0000 C   0  0  0  0  0  0  0  0  0  0  0  0
    0.0000    0.0000    0.0000 C   0  0  0  0  0  0  0  0  0  0  0  0
    0.0000    0.0000    0.0000 C   0  0  0  0  0  0  0  0  0  0  0  0
    0.0000    0.0000    0.0000 C   0  0  0  0  0  0  0  0  0  0  0  0
    0.0000    0.0000    0.0000 C   0  0  0  0  0  0  0  0  0  0  0  0
    0.0000    0.0000    0.0000 C   0  0  0  0  0  0  0  0  0  0  0  0
    0.0000    0.0000    0.0000 C   0  0  0  0  0  0  0  0  0  0  0  0
    0.0000    0.0000    0.0000 C   0  0  0  0  0  0  0  0  0  0  0  0
  1  2  1  0
  2  3  1  0
  3  4  1  0
  4  5  1  0
  3  6  1  0
  6  7  2  0
  6  8  1  0
  8  9  2  0
  9 10  1  0
 10 11  2  0
 11 12  1  0
 12 13  2  0
 11 14  1  0
 14 15  1  0
 15 16  1  0
 16 17  1  0
 17 18  1  0
 18 19  1  0
 19 20  1  0
 20 21  2  0
 18 22  1  0
 22 23  1  0
 14 24  1  0
 24 25  2  0
 25 26  1  0
 26 27  2  0
 27 28  1  0
 28 29  2  0
 13  8  1  0
 23 15  1  0
 29 24  1  0
M  END
>  <pIC50>  (153) 
5.3

>  <ChEMBL_ID>  (153) 
CHEMBL24035

>  <document_journal>  (153) 
J. Med. Chem.

>  <bao_endpoint>  (153) 
BAO_0000190

>  <potential_duplicate>  (153) 
False

>  <uo_units>  (153) 
UO_0000065

>  <canonical_smiles>  (153) 
CCN(CC)C(=O)c1ccc(cc1)C(N2CCN(CC=C)CC2)c3ccccc3

>  <parent_molecule_chembl_id>  (153) 
CHEMBL24035

>  <assay_type>  (153) 
B

>  <src_id>  (153) 
1

>  <ligand_efficiency>  (153) 
{u'le': u'0.25', u'bei': u'13.52', u'sei': u'19.77', u'lle': u'1.1'}

>  <standard_flag>  (153) 
True

>  <molecule_chembl_id>  (153) 
CHEMBL24035

>  <target_organism>  (153) 
Homo sapiens

>  <standard_units>  (153) 
nM

>  <record_id>  (153) 
242549

>  <document_chembl_id>  (153) 
CHEMBL1133468

>  <bao_format>  (153) 
BAO_0000357

>  <data_validity_description>  (153) 
None

>  <activity_id>  (153) 
865914

>  <standard_type>  (153) 
IC50

>  <target_chembl_id>  (153) 
CHEMBL233

>  <data_validity_comment>  (153) 
None

>  <published_value>  (153) 
5064

>  <document_year>  (153) 
2000

>  <target_pref_name>  (153) 
Mu opioid receptor

>  <assay_chembl_id>  (153) 
CHEMBL749744

>  <standard_relation>  (153) 
=

>  <assay_description>  (153) 
Binding affinity against cloned human Opioid receptor mu 1 using [125I]FK33824 as radioligand

>  <published_relation>  (153) 
=

>  <standard_value>  (153) 
5064

>  <qudt_units>  (153) 
http://www.openphacts.org/units/Nanomolar

>  <target_tax_id>  (153) 
9606

>  <bao_label>  (153) 
single protein format

>  <published_units>  (153) 
nM

>  <pchembl_value>  (153) 
5.3

>  <published_type>  (153) 
IC50

>  <activity_comment>  (153) 
None

$$$$

     RDKit          

 31 33  0  0  0  0  0  0  0  0999 V2000
    0.0000    0.0000    0.0000 C   0  0  0  0  0  0  0  0  0  0  0  0
    0.0000    0.0000    0.0000 C   0  0  0  0  0  0  0  0  0  0  0  0
    0.0000    0.0000    0.0000 N   0  0  0  0  0  0  0  0  0  0  0  0
    0.0000    0.0000    0.0000 C   0  0  0  0  0  0  0  0  0  0  0  0
    0.0000    0.0000    0.0000 C   0  0  0  0  0  0  0  0  0  0  0  0
    0.0000    0.0000    0.0000 C   0  0  0  0  0  0  0  0  0  0  0  0
    0.0000    0.0000    0.0000 O   0  0  0  0  0  0  0  0  0  0  0  0
    0.0000    0.0000    0.0000 C   0  0  0  0  0  0  0  0  0  0  0  0
    0.0000    0.0000    0.0000 C   0  0  0  0  0  0  0  0  0  0  0  0
    0.0000    0.0000    0.0000 C   0  0  0  0  0  0  0  0  0  0  0  0
    0.0000    0.0000    0.0000 C   0  0  0  0  0  0  0  0  0  0  0  0
    0.0000    0.0000    0.0000 C   0  0  0  0  0  0  0  0  0  0  0  0
    0.0000    0.0000    0.0000 C   0  0  0  0  0  0  0  0  0  0  0  0
    0.0000    0.0000    0.0000 C   0  0  0  0  0  0  0  0  0  0  0  0
    0.0000    0.0000    0.0000 N   0  0  0  0  0  0  0  0  0  0  0  0
    0.0000    0.0000    0.0000 C   0  0  0  0  0  0  0  0  0  0  0  0
    0.0000    0.0000    0.0000 C   0  0  0  0  0  0  0  0  0  0  0  0
    0.0000    0.0000    0.0000 C   0  0  0  0  0  0  0  0  0  0  0  0
    0.0000    0.0000    0.0000 C   0  0  0  0  0  0  0  0  0  0  0  0
    0.0000    0.0000    0.0000 N   0  0  0  0  0  0  0  0  0  0  0  0
    0.0000    0.0000    0.0000 C   0  0  0  0  0  0  0  0  0  0  0  0
    0.0000    0.0000    0.0000 C   0  0  0  0  0  0  0  0  0  0  0  0
    0.0000    0.0000    0.0000 C   0  0  0  0  0  0  0  0  0  0  0  0
    0.0000    0.0000    0.0000 C   0  0  0  0  0  0  0  0  0  0  0  0
    0.0000    0.0000    0.0000 C   0  0  0  0  0  0  0  0  0  0  0  0
    0.0000    0.0000    0.0000 C   0  0  0  0  0  0  0  0  0  0  0  0
    0.0000    0.0000    0.0000 C   0  0  0  0  0  0  0  0  0  0  0  0
    0.0000    0.0000    0.0000 C   0  0  0  0  0  0  0  0  0  0  0  0
    0.0000    0.0000    0.0000 O   0  0  0  0  0  0  0  0  0  0  0  0
    0.0000    0.0000    0.0000 C   0  0  0  0  0  0  0  0  0  0  0  0
    0.0000    0.0000    0.0000 C   0  0  0  0  0  0  0  0  0  0  0  0
  1  2  1  0
  2  3  1  0
  3  4  1  0
  4  5  1  0
  3  6  1  0
  6  7  2  0
  6  8  1  0
  8  9  2  0
  9 10  1  0
 10 11  2  0
 11 12  1  0
 12 13  2  0
 11 14  1  0
 14 15  1  0
 15 16  1  0
 16 17  1  0
 17 18  1  0
 17 19  1  0
 17 20  1  0
 20 21  1  0
 21 22  1  0
 22 23  1  0
 14 24  1  0
 24 25  2  0
 25 26  1  0
 26 27  2  0
 27 28  1  0
 28 29  1  0
 29 30  1  0
 28 31  2  0
 13  8  1  0
 22 15  1  0
 31 24  1  0
M  END
>  <pIC50>  (154) 
6.21

>  <ChEMBL_ID>  (154) 
CHEMBL127434

>  <document_journal>  (154) 
J. Med. Chem.

>  <bao_endpoint>  (154) 
BAO_0000190

>  <potential_duplicate>  (154) 
False

>  <uo_units>  (154) 
UO_0000065

>  <canonical_smiles>  (154) 
CCN(CC)C(=O)c1ccc(cc1)C(N2CC(C)(C)NCC2C)c3cccc(OC)c3

>  <parent_molecule_chembl_id>  (154) 
CHEMBL127434

>  <assay_type>  (154) 
B

>  <src_id>  (154) 
1

>  <ligand_efficiency>  (154) 
{u'le': u'0.27', u'bei': u'14.65', u'sei': u'13.85', u'lle': u'2.22'}

>  <standard_flag>  (154) 
True

>  <molecule_chembl_id>  (154) 
CHEMBL127434

>  <target_organism>  (154) 
Homo sapiens

>  <standard_units>  (154) 
nM

>  <record_id>  (154) 
242528

>  <document_chembl_id>  (154) 
CHEMBL1133468

>  <bao_format>  (154) 
BAO_0000357

>  <data_validity_description>  (154) 
None

>  <activity_id>  (154) 
867322

>  <standard_type>  (154) 
IC50

>  <target_chembl_id>  (154) 
CHEMBL233

>  <data_validity_comment>  (154) 
None

>  <published_value>  (154) 
620

>  <document_year>  (154) 
2000

>  <target_pref_name>  (154) 
Mu opioid receptor

>  <assay_chembl_id>  (154) 
CHEMBL749744

>  <standard_relation>  (154) 
=

>  <assay_description>  (154) 
Binding affinity against cloned human Opioid receptor mu 1 using [125I]FK33824 as radioligand

>  <published_relation>  (154) 
=

>  <standard_value>  (154) 
620

>  <qudt_units>  (154) 
http://www.openphacts.org/units/Nanomolar

>  <target_tax_id>  (154) 
9606

>  <bao_label>  (154) 
single protein format

>  <published_units>  (154) 
nM

>  <pchembl_value>  (154) 
6.21

>  <published_type>  (154) 
IC50

>  <activity_comment>  (154) 
None

$$$$

     RDKit          

 25 27  0  0  0  0  0  0  0  0999 V2000
    0.0000    0.0000    0.0000 C   0  0  0  0  0  0  0  0  0  0  0  0
    0.0000    0.0000    0.0000 C   0  0  0  0  0  0  0  0  0  0  0  0
    0.0000    0.0000    0.0000 C   0  0  0  0  0  0  0  0  0  0  0  0
    0.0000    0.0000    0.0000 N   0  0  0  0  0  0  0  0  0  0  0  0
    0.0000    0.0000    0.0000 C   0  0  0  0  0  0  0  0  0  0  0  0
    0.0000    0.0000    0.0000 C   0  0  0  0  0  0  0  0  0  0  0  0
    0.0000    0.0000    0.0000 C   0  0  0  0  0  0  0  0  0  0  0  0
    0.0000    0.0000    0.0000 C   0  0  0  0  0  0  0  0  0  0  0  0
    0.0000    0.0000    0.0000 C   0  0  0  0  0  0  0  0  0  0  0  0
    0.0000    0.0000    0.0000 C   0  0  0  0  0  0  0  0  0  0  0  0
    0.0000    0.0000    0.0000 C   0  0  0  0  0  0  0  0  0  0  0  0
    0.0000    0.0000    0.0000 C   0  0  0  0  0  0  0  0  0  0  0  0
    0.0000    0.0000    0.0000 C   0  0  0  0  0  0  0  0  0  0  0  0
    0.0000    0.0000    0.0000 C   0  0  0  0  0  0  0  0  0  0  0  0
    0.0000    0.0000    0.0000 C   0  0  0  0  0  0  0  0  0  0  0  0
    0.0000    0.0000    0.0000 C   0  0  0  0  0  0  0  0  0  0  0  0
    0.0000    0.0000    0.0000 C   0  0  0  0  0  0  0  0  0  0  0  0
    0.0000    0.0000    0.0000 C   0  0  0  0  0  0  0  0  0  0  0  0
    0.0000    0.0000    0.0000 C   0  0  0  0  0  0  0  0  0  0  0  0
    0.0000    0.0000    0.0000 C   0  0  0  0  0  0  0  0  0  0  0  0
    0.0000    0.0000    0.0000 C   0  0  0  0  0  0  0  0  0  0  0  0
    0.0000    0.0000    0.0000 C   0  0  0  0  0  0  0  0  0  0  0  0
    0.0000    0.0000    0.0000 C   0  0  0  0  0  0  0  0  0  0  0  0
    0.0000    0.0000    0.0000 O   0  0  0  0  0  0  0  0  0  0  0  0
    0.0000    0.0000    0.0000 N   0  0  0  0  0  0  0  0  0  0  0  0
  1  2  1  0
  2  3  1  0
  3  4  1  0
  4  5  1  0
  5  6  1  0
  6  7  1  0
  7  8  2  0
  8  9  1  0
  9 10  2  0
 10 11  1  0
 11 12  2  0
  4 13  1  0
 13 14  1  0
 14 15  1  0
 15 16  1  0
 15 17  1  0
 17 18  2  0
 18 19  1  0
 19 20  2  0
 20 21  1  0
 21 22  2  0
 21 23  1  0
 23 24  2  0
 23 25  1  0
 15  2  1  0
 12  7  1  0
 22 17  1  0
M  END
>  <pIC50>  (155) 
8.72

>  <ChEMBL_ID>  (155) 
CHEMBL336234

>  <document_journal>  (155) 
Bioorg. Med. Chem. Lett.

>  <bao_endpoint>  (155) 
BAO_0000190

>  <potential_duplicate>  (155) 
False

>  <uo_units>  (155) 
UO_0000065

>  <canonical_smiles>  (155) 
C[C@H]1CN(CCc2ccccc2)CC[C@@]1(C)c3cccc(c3)C(=O)N

>  <parent_molecule_chembl_id>  (155) 
CHEMBL336234

>  <assay_type>  (155) 
F

>  <src_id>  (155) 
1

>  <ligand_efficiency>  (155) 
None

>  <standard_flag>  (155) 
True

>  <molecule_chembl_id>  (155) 
CHEMBL336234

>  <target_organism>  (155) 
Homo sapiens

>  <standard_units>  (155) 
nM

>  <record_id>  (155) 
268044

>  <document_chembl_id>  (155) 
CHEMBL1136497

>  <bao_format>  (155) 
BAO_0000019

>  <data_validity_description>  (155) 
None

>  <activity_id>  (155) 
868077

>  <standard_type>  (155) 
IC50

>  <target_chembl_id>  (155) 
CHEMBL233

>  <data_validity_comment>  (155) 
None

>  <published_value>  (155) 
1.9

>  <document_year>  (155) 
2003

>  <target_pref_name>  (155) 
Mu opioid receptor

>  <assay_chembl_id>  (155) 
CHEMBL754686

>  <standard_relation>  (155) 
=

>  <assay_description>  (155) 
Concentration required to inhibit agonist (loperamide) stimulated [35S]GTP-gamma-S, binding to membranes containing the cloned human mu opioid receptor

>  <published_relation>  (155) 
=

>  <standard_value>  (155) 
1.9

>  <qudt_units>  (155) 
http://www.openphacts.org/units/Nanomolar

>  <target_tax_id>  (155) 
9606

>  <bao_label>  (155) 
assay format

>  <published_units>  (155) 
nM

>  <pchembl_value>  (155) 
8.72

>  <published_type>  (155) 
IC50

>  <activity_comment>  (155) 
None

$$$$

     RDKit          

 27 29  0  0  0  0  0  0  0  0999 V2000
    0.0000    0.0000    0.0000 C   0  0  0  0  0  0  0  0  0  0  0  0
    0.0000    0.0000    0.0000 C   0  0  0  0  0  0  0  0  0  0  0  0
    0.0000    0.0000    0.0000 N   0  0  0  0  0  0  0  0  0  0  0  0
    0.0000    0.0000    0.0000 C   0  0  0  0  0  0  0  0  0  0  0  0
    0.0000    0.0000    0.0000 C   0  0  0  0  0  0  0  0  0  0  0  0
    0.0000    0.0000    0.0000 C   0  0  0  0  0  0  0  0  0  0  0  0
    0.0000    0.0000    0.0000 O   0  0  0  0  0  0  0  0  0  0  0  0
    0.0000    0.0000    0.0000 C   0  0  0  0  0  0  0  0  0  0  0  0
    0.0000    0.0000    0.0000 C   0  0  0  0  0  0  0  0  0  0  0  0
    0.0000    0.0000    0.0000 C   0  0  0  0  0  0  0  0  0  0  0  0
    0.0000    0.0000    0.0000 C   0  0  0  0  0  0  0  0  0  0  0  0
    0.0000    0.0000    0.0000 C   0  0  0  0  0  0  0  0  0  0  0  0
    0.0000    0.0000    0.0000 C   0  0  0  0  0  0  0  0  0  0  0  0
    0.0000    0.0000    0.0000 C   0  0  0  0  0  0  0  0  0  0  0  0
    0.0000    0.0000    0.0000 N   0  0  0  0  0  0  0  0  0  0  0  0
    0.0000    0.0000    0.0000 C   0  0  0  0  0  0  0  0  0  0  0  0
    0.0000    0.0000    0.0000 C   0  0  0  0  0  0  0  0  0  0  0  0
    0.0000    0.0000    0.0000 N   0  0  0  0  0  0  0  0  0  0  0  0
    0.0000    0.0000    0.0000 C   0  0  0  0  0  0  0  0  0  0  0  0
    0.0000    0.0000    0.0000 C   0  0  0  0  0  0  0  0  0  0  0  0
    0.0000    0.0000    0.0000 C   0  0  0  0  0  0  0  0  0  0  0  0
    0.0000    0.0000    0.0000 C   0  0  0  0  0  0  0  0  0  0  0  0
    0.0000    0.0000    0.0000 C   0  0  0  0  0  0  0  0  0  0  0  0
    0.0000    0.0000    0.0000 C   0  0  0  0  0  0  0  0  0  0  0  0
    0.0000    0.0000    0.0000 Cl  0  0  0  0  0  0  0  0  0  0  0  0
    0.0000    0.0000    0.0000 C   0  0  0  0  0  0  0  0  0  0  0  0
    0.0000    0.0000    0.0000 C   0  0  0  0  0  0  0  0  0  0  0  0
  1  2  1  0
  2  3  1  0
  3  4  1  0
  4  5  1  0
  3  6  1  0
  6  7  2  0
  6  8  1  0
  8  9  2  0
  9 10  1  0
 10 11  2  0
 11 12  1  0
 12 13  2  0
 11 14  1  0
 14 15  1  0
 15 16  1  0
 16 17  1  0
 17 18  1  0
 18 19  1  0
 19 20  1  0
 14 21  1  0
 21 22  2  0
 22 23  1  0
 23 24  2  0
 24 25  1  0
 24 26  1  0
 26 27  2  0
 13  8  1  0
 20 15  1  0
 27 21  1  0
M  END
>  <pIC50>  (156) 
5.27

>  <ChEMBL_ID>  (156) 
CHEMBL128006

>  <document_journal>  (156) 
J. Med. Chem.

>  <bao_endpoint>  (156) 
BAO_0000190

>  <potential_duplicate>  (156) 
False

>  <uo_units>  (156) 
UO_0000065

>  <canonical_smiles>  (156) 
CCN(CC)C(=O)c1ccc(cc1)C(N2CCNCC2)c3ccc(Cl)cc3

>  <parent_molecule_chembl_id>  (156) 
CHEMBL128006

>  <assay_type>  (156) 
B

>  <src_id>  (156) 
1

>  <ligand_efficiency>  (156) 
{u'le': u'0.27', u'bei': u'13.66', u'sei': u'14.82', u'lle': u'1.56'}

>  <standard_flag>  (156) 
True

>  <molecule_chembl_id>  (156) 
CHEMBL128006

>  <target_organism>  (156) 
Homo sapiens

>  <standard_units>  (156) 
nM

>  <record_id>  (156) 
242544

>  <document_chembl_id>  (156) 
CHEMBL1133468

>  <bao_format>  (156) 
BAO_0000357

>  <data_validity_description>  (156) 
None

>  <activity_id>  (156) 
871068

>  <standard_type>  (156) 
IC50

>  <target_chembl_id>  (156) 
CHEMBL233

>  <data_validity_comment>  (156) 
None

>  <published_value>  (156) 
5330

>  <document_year>  (156) 
2000

>  <target_pref_name>  (156) 
Mu opioid receptor

>  <assay_chembl_id>  (156) 
CHEMBL749744

>  <standard_relation>  (156) 
=

>  <assay_description>  (156) 
Binding affinity against cloned human Opioid receptor mu 1 using [125I]FK33824 as radioligand

>  <published_relation>  (156) 
=

>  <standard_value>  (156) 
5330

>  <qudt_units>  (156) 
http://www.openphacts.org/units/Nanomolar

>  <target_tax_id>  (156) 
9606

>  <bao_label>  (156) 
single protein format

>  <published_units>  (156) 
nM

>  <pchembl_value>  (156) 
5.27

>  <published_type>  (156) 
IC50

>  <activity_comment>  (156) 
None

$$$$

     RDKit          

 30 32  0  0  0  0  0  0  0  0999 V2000
    0.0000    0.0000    0.0000 C   0  0  0  0  0  0  0  0  0  0  0  0
    0.0000    0.0000    0.0000 C   0  0  0  0  0  0  0  0  0  0  0  0
    0.0000    0.0000    0.0000 C   0  0  0  0  0  0  0  0  0  0  0  0
    0.0000    0.0000    0.0000 C   0  0  0  0  0  0  0  0  0  0  0  0
    0.0000    0.0000    0.0000 N   0  0  0  0  0  0  0  0  0  0  0  0
    0.0000    0.0000    0.0000 C   0  0  0  0  0  0  0  0  0  0  0  0
    0.0000    0.0000    0.0000 C   0  0  0  0  0  0  0  0  0  0  0  0
    0.0000    0.0000    0.0000 N   0  0  0  0  0  0  0  0  0  0  0  0
    0.0000    0.0000    0.0000 C   0  0  0  0  0  0  0  0  0  0  0  0
    0.0000    0.0000    0.0000 C   0  0  0  0  0  0  0  0  0  0  0  0
    0.0000    0.0000    0.0000 C   0  0  0  0  0  0  0  0  0  0  0  0
    0.0000    0.0000    0.0000 C   0  0  0  0  0  0  0  0  0  0  0  0
    0.0000    0.0000    0.0000 C   0  0  0  0  0  0  0  0  0  0  0  0
    0.0000    0.0000    0.0000 C   0  0  0  0  0  0  0  0  0  0  0  0
    0.0000    0.0000    0.0000 C   0  0  0  0  0  0  0  0  0  0  0  0
    0.0000    0.0000    0.0000 C   0  0  0  0  0  0  0  0  0  0  0  0
    0.0000    0.0000    0.0000 C   0  0  0  0  0  0  0  0  0  0  0  0
    0.0000    0.0000    0.0000 C   0  0  0  0  0  0  0  0  0  0  0  0
    0.0000    0.0000    0.0000 C   0  0  0  0  0  0  0  0  0  0  0  0
    0.0000    0.0000    0.0000 C   0  0  0  0  0  0  0  0  0  0  0  0
    0.0000    0.0000    0.0000 C   0  0  0  0  0  0  0  0  0  0  0  0
    0.0000    0.0000    0.0000 C   0  0  0  0  0  0  0  0  0  0  0  0
    0.0000    0.0000    0.0000 C   0  0  0  0  0  0  0  0  0  0  0  0
    0.0000    0.0000    0.0000 C   0  0  0  0  0  0  0  0  0  0  0  0
    0.0000    0.0000    0.0000 O   0  0  0  0  0  0  0  0  0  0  0  0
    0.0000    0.0000    0.0000 N   0  0  0  0  0  0  0  0  0  0  0  0
    0.0000    0.0000    0.0000 C   0  0  0  0  0  0  0  0  0  0  0  0
    0.0000    0.0000    0.0000 C   0  0  0  0  0  0  0  0  0  0  0  0
    0.0000    0.0000    0.0000 C   0  0  0  0  0  0  0  0  0  0  0  0
    0.0000    0.0000    0.0000 C   0  0  0  0  0  0  0  0  0  0  0  0
  1  2  1  0
  2  3  1  0
  3  4  1  0
  4  5  1  0
  5  6  1  0
  6  7  1  0
  7  8  1  0
  8  9  1  0
  9 10  1  0
  8 11  1  0
 11 12  1  0
 12 13  2  0
 13 14  1  0
 14 15  2  0
 15 16  1  0
 16 17  2  0
 11 18  1  0
 18 19  2  0
 19 20  1  0
 20 21  2  0
 21 22  1  0
 22 23  2  0
 21 24  1  0
 24 25  2  0
 24 26  1  0
 26 27  1  0
 27 28  1  0
 26 29  1  0
 29 30  1  0
 10  5  1  0
 17 12  1  0
 23 18  1  0
M  END
>  <pIC50>  (157) 
6.31

>  <ChEMBL_ID>  (157) 
CHEMBL123679

>  <document_journal>  (157) 
J. Med. Chem.

>  <bao_endpoint>  (157) 
BAO_0000190

>  <potential_duplicate>  (157) 
False

>  <uo_units>  (157) 
UO_0000065

>  <canonical_smiles>  (157) 
CCCCN1CCN(CC1)C(c2ccccc2)c3ccc(cc3)C(=O)N(CC)CC

>  <parent_molecule_chembl_id>  (157) 
CHEMBL123679

>  <assay_type>  (157) 
B

>  <src_id>  (157) 
1

>  <ligand_efficiency>  (157) 
{u'le': u'0.29', u'bei': u'15.49', u'sei': u'23.57', u'lle': u'1.4'}

>  <standard_flag>  (157) 
True

>  <molecule_chembl_id>  (157) 
CHEMBL123679

>  <target_organism>  (157) 
Homo sapiens

>  <standard_units>  (157) 
nM

>  <record_id>  (157) 
242547

>  <document_chembl_id>  (157) 
CHEMBL1133468

>  <bao_format>  (157) 
BAO_0000357

>  <data_validity_description>  (157) 
None

>  <activity_id>  (157) 
874611

>  <standard_type>  (157) 
IC50

>  <target_chembl_id>  (157) 
CHEMBL233

>  <data_validity_comment>  (157) 
None

>  <published_value>  (157) 
486

>  <document_year>  (157) 
2000

>  <target_pref_name>  (157) 
Mu opioid receptor

>  <assay_chembl_id>  (157) 
CHEMBL749744

>  <standard_relation>  (157) 
=

>  <assay_description>  (157) 
Binding affinity against cloned human Opioid receptor mu 1 using [125I]FK33824 as radioligand

>  <published_relation>  (157) 
=

>  <standard_value>  (157) 
486

>  <qudt_units>  (157) 
http://www.openphacts.org/units/Nanomolar

>  <target_tax_id>  (157) 
9606

>  <bao_label>  (157) 
single protein format

>  <published_units>  (157) 
nM

>  <pchembl_value>  (157) 
6.31

>  <published_type>  (157) 
IC50

>  <activity_comment>  (157) 
None

$$$$

     RDKit          

 32 34  0  0  0  0  0  0  0  0999 V2000
    0.0000    0.0000    0.0000 C   0  0  0  0  0  0  0  0  0  0  0  0
    0.0000    0.0000    0.0000 C   0  0  0  0  0  0  0  0  0  0  0  0
    0.0000    0.0000    0.0000 N   0  0  0  0  0  0  0  0  0  0  0  0
    0.0000    0.0000    0.0000 C   0  0  0  0  0  0  0  0  0  0  0  0
    0.0000    0.0000    0.0000 C   0  0  0  0  0  0  0  0  0  0  0  0
    0.0000    0.0000    0.0000 C   0  0  0  0  0  0  0  0  0  0  0  0
    0.0000    0.0000    0.0000 O   0  0  0  0  0  0  0  0  0  0  0  0
    0.0000    0.0000    0.0000 C   0  0  0  0  0  0  0  0  0  0  0  0
    0.0000    0.0000    0.0000 C   0  0  0  0  0  0  0  0  0  0  0  0
    0.0000    0.0000    0.0000 C   0  0  0  0  0  0  0  0  0  0  0  0
    0.0000    0.0000    0.0000 C   0  0  0  0  0  0  0  0  0  0  0  0
    0.0000    0.0000    0.0000 C   0  0  0  0  0  0  0  0  0  0  0  0
    0.0000    0.0000    0.0000 C   0  0  0  0  0  0  0  0  0  0  0  0
    0.0000    0.0000    0.0000 C   0  0  0  0  0  0  0  0  0  0  0  0
    0.0000    0.0000    0.0000 N   0  0  0  0  0  0  0  0  0  0  0  0
    0.0000    0.0000    0.0000 C   0  0  0  0  0  0  0  0  0  0  0  0
    0.0000    0.0000    0.0000 C   0  0  0  0  0  0  0  0  0  0  0  0
    0.0000    0.0000    0.0000 C   0  0  0  0  0  0  0  0  0  0  0  0
    0.0000    0.0000    0.0000 N   0  0  0  0  0  0  0  0  0  0  0  0
    0.0000    0.0000    0.0000 C   0  0  0  0  0  0  0  0  0  0  0  0
    0.0000    0.0000    0.0000 C   0  0  0  0  0  0  0  0  0  0  0  0
    0.0000    0.0000    0.0000 C   0  0  0  0  0  0  0  0  0  0  0  0
    0.0000    0.0000    0.0000 C   0  0  0  0  0  0  0  0  0  0  0  0
    0.0000    0.0000    0.0000 C   0  0  0  0  0  0  0  0  0  0  0  0
    0.0000    0.0000    0.0000 C   0  0  0  0  0  0  0  0  0  0  0  0
    0.0000    0.0000    0.0000 C   0  0  0  0  0  0  0  0  0  0  0  0
    0.0000    0.0000    0.0000 C   0  0  0  0  0  0  0  0  0  0  0  0
    0.0000    0.0000    0.0000 C   0  0  0  0  0  0  0  0  0  0  0  0
    0.0000    0.0000    0.0000 C   0  0  0  0  0  0  0  0  0  0  0  0
    0.0000    0.0000    0.0000 C   0  0  0  0  0  0  0  0  0  0  0  0
    0.0000    0.0000    0.0000 O   0  0  0  0  0  0  0  0  0  0  0  0
    0.0000    0.0000    0.0000 C   0  0  0  0  0  0  0  0  0  0  0  0
  1  2  1  0
  2  3  1  0
  3  4  1  0
  4  5  1  0
  3  6  1  0
  6  7  2  0
  6  8  1  0
  8  9  2  0
  9 10  1  0
 10 11  2  0
 11 12  1  0
 12 13  2  0
 11 14  1  0
 14 15  1  0
 15 16  1  0
 16 17  1  0
 17 18  1  0
 17 19  1  0
 19 20  1  0
 20 21  1  0
 21 22  2  0
 19 23  1  0
 23 24  1  0
 24 25  1  0
 14 26  1  0
 26 27  2  0
 27 28  1  0
 28 29  2  0
 29 30  1  0
 30 31  1  0
 30 32  2  0
 13  8  1  0
 24 15  1  0
 32 26  1  0
M  END
>  <pIC50>  (158) 
8.68

>  <ChEMBL_ID>  (158) 
CHEMBL25230

>  <document_journal>  (158) 
J. Med. Chem.

>  <bao_endpoint>  (158) 
BAO_0000190

>  <potential_duplicate>  (158) 
False

>  <uo_units>  (158) 
UO_0000065

>  <canonical_smiles>  (158) 
CCN(CC)C(=O)c1ccc(cc1)[C@@H](N2C[C@@H](C)N(CC=C)C[C@@H]2C)c3cccc(O)c3

>  <parent_molecule_chembl_id>  (158) 
CHEMBL25230

>  <assay_type>  (158) 
B

>  <src_id>  (158) 
1

>  <ligand_efficiency>  (158) 
{u'le': u'0.37', u'bei': u'19.92', u'sei': u'18.46', u'lle': u'3.97'}

>  <standard_flag>  (158) 
True

>  <molecule_chembl_id>  (158) 
CHEMBL25230

>  <target_organism>  (158) 
Homo sapiens

>  <standard_units>  (158) 
nM

>  <record_id>  (158) 
242531

>  <document_chembl_id>  (158) 
CHEMBL1133468

>  <bao_format>  (158) 
BAO_0000357

>  <data_validity_description>  (158) 
None

>  <activity_id>  (158) 
875792

>  <standard_type>  (158) 
IC50

>  <target_chembl_id>  (158) 
CHEMBL233

>  <data_validity_comment>  (158) 
None

>  <published_value>  (158) 
2.1

>  <document_year>  (158) 
2000

>  <target_pref_name>  (158) 
Mu opioid receptor

>  <assay_chembl_id>  (158) 
CHEMBL749744

>  <standard_relation>  (158) 
=

>  <assay_description>  (158) 
Binding affinity against cloned human Opioid receptor mu 1 using [125I]FK33824 as radioligand

>  <published_relation>  (158) 
=

>  <standard_value>  (158) 
2.1

>  <qudt_units>  (158) 
http://www.openphacts.org/units/Nanomolar

>  <target_tax_id>  (158) 
9606

>  <bao_label>  (158) 
single protein format

>  <published_units>  (158) 
nM

>  <pchembl_value>  (158) 
8.68

>  <published_type>  (158) 
IC50

>  <activity_comment>  (158) 
None

$$$$

     RDKit          

 24 26  0  0  0  0  0  0  0  0999 V2000
    0.0000    0.0000    0.0000 C   0  0  0  0  0  0  0  0  0  0  0  0
    0.0000    0.0000    0.0000 C   0  0  0  0  0  0  0  0  0  0  0  0
    0.0000    0.0000    0.0000 C   0  0  0  0  0  0  0  0  0  0  0  0
    0.0000    0.0000    0.0000 N   0  0  0  0  0  0  0  0  0  0  0  0
    0.0000    0.0000    0.0000 C   0  0  0  0  0  0  0  0  0  0  0  0
    0.0000    0.0000    0.0000 C   0  0  0  0  0  0  0  0  0  0  0  0
    0.0000    0.0000    0.0000 C   0  0  0  0  0  0  0  0  0  0  0  0
    0.0000    0.0000    0.0000 C   0  0  0  0  0  0  0  0  0  0  0  0
    0.0000    0.0000    0.0000 C   0  0  0  0  0  0  0  0  0  0  0  0
    0.0000    0.0000    0.0000 C   0  0  0  0  0  0  0  0  0  0  0  0
    0.0000    0.0000    0.0000 C   0  0  0  0  0  0  0  0  0  0  0  0
    0.0000    0.0000    0.0000 C   0  0  0  0  0  0  0  0  0  0  0  0
    0.0000    0.0000    0.0000 C   0  0  0  0  0  0  0  0  0  0  0  0
    0.0000    0.0000    0.0000 C   0  0  0  0  0  0  0  0  0  0  0  0
    0.0000    0.0000    0.0000 C   0  0  0  0  0  0  0  0  0  0  0  0
    0.0000    0.0000    0.0000 C   0  0  0  0  0  0  0  0  0  0  0  0
    0.0000    0.0000    0.0000 C   0  0  0  0  0  0  0  0  0  0  0  0
    0.0000    0.0000    0.0000 C   0  0  0  0  0  0  0  0  0  0  0  0
    0.0000    0.0000    0.0000 C   0  0  0  0  0  0  0  0  0  0  0  0
    0.0000    0.0000    0.0000 C   0  0  0  0  0  0  0  0  0  0  0  0
    0.0000    0.0000    0.0000 C   0  0  0  0  0  0  0  0  0  0  0  0
    0.0000    0.0000    0.0000 C   0  0  0  0  0  0  0  0  0  0  0  0
    0.0000    0.0000    0.0000 O   0  0  0  0  0  0  0  0  0  0  0  0
    0.0000    0.0000    0.0000 C   0  0  0  0  0  0  0  0  0  0  0  0
  1  2  1  0
  2  3  1  0
  3  4  1  0
  4  5  1  0
  5  6  1  0
  6  7  1  0
  7  8  2  0
  8  9  1  0
  9 10  2  0
 10 11  1  0
 11 12  2  0
  4 13  1  0
 13 14  1  0
 14 15  1  0
 15 16  1  0
 15 17  1  0
 17 18  2  0
 18 19  1  0
 19 20  2  0
 20 21  1  0
 21 22  1  0
 22 23  1  0
 21 24  2  0
 15  2  1  0
 12  7  1  0
 24 17  1  0
M  END
>  <pIC50>  (159) 
8.68

>  <ChEMBL_ID>  (159) 
CHEMBL138036

>  <document_journal>  (159) 
Bioorg. Med. Chem. Lett.

>  <bao_endpoint>  (159) 
BAO_0000190

>  <potential_duplicate>  (159) 
False

>  <uo_units>  (159) 
UO_0000065

>  <canonical_smiles>  (159) 
C[C@H]1CN(CCc2ccccc2)CC[C@@]1(C)c3cccc(CO)c3

>  <parent_molecule_chembl_id>  (159) 
CHEMBL138036

>  <assay_type>  (159) 
F

>  <src_id>  (159) 
1

>  <ligand_efficiency>  (159) 
None

>  <standard_flag>  (159) 
True

>  <molecule_chembl_id>  (159) 
CHEMBL138036

>  <target_organism>  (159) 
Homo sapiens

>  <standard_units>  (159) 
nM

>  <record_id>  (159) 
268039

>  <document_chembl_id>  (159) 
CHEMBL1136497

>  <bao_format>  (159) 
BAO_0000019

>  <data_validity_description>  (159) 
None

>  <activity_id>  (159) 
876678

>  <standard_type>  (159) 
IC50

>  <target_chembl_id>  (159) 
CHEMBL233

>  <data_validity_comment>  (159) 
None

>  <published_value>  (159) 
2.1

>  <document_year>  (159) 
2003

>  <target_pref_name>  (159) 
Mu opioid receptor

>  <assay_chembl_id>  (159) 
CHEMBL754686

>  <standard_relation>  (159) 
=

>  <assay_description>  (159) 
Concentration required to inhibit agonist (loperamide) stimulated [35S]GTP-gamma-S, binding to membranes containing the cloned human mu opioid receptor

>  <published_relation>  (159) 
=

>  <standard_value>  (159) 
2.1

>  <qudt_units>  (159) 
http://www.openphacts.org/units/Nanomolar

>  <target_tax_id>  (159) 
9606

>  <bao_label>  (159) 
assay format

>  <published_units>  (159) 
nM

>  <pchembl_value>  (159) 
8.68

>  <published_type>  (159) 
IC50

>  <activity_comment>  (159) 
None

$$$$

     RDKit          

 26 28  0  0  0  0  0  0  0  0999 V2000
    0.0000    0.0000    0.0000 C   0  0  0  0  0  0  0  0  0  0  0  0
    0.0000    0.0000    0.0000 N   0  0  0  0  0  0  0  0  0  0  0  0
    0.0000    0.0000    0.0000 C   0  0  0  0  0  0  0  0  0  0  0  0
    0.0000    0.0000    0.0000 O   0  0  0  0  0  0  0  0  0  0  0  0
    0.0000    0.0000    0.0000 C   0  0  0  0  0  0  0  0  0  0  0  0
    0.0000    0.0000    0.0000 C   0  0  0  0  0  0  0  0  0  0  0  0
    0.0000    0.0000    0.0000 C   0  0  0  0  0  0  0  0  0  0  0  0
    0.0000    0.0000    0.0000 C   0  0  0  0  0  0  0  0  0  0  0  0
    0.0000    0.0000    0.0000 C   0  0  0  0  0  0  0  0  0  0  0  0
    0.0000    0.0000    0.0000 C   0  0  0  0  0  0  0  0  0  0  0  0
    0.0000    0.0000    0.0000 C   0  0  0  0  0  0  0  0  0  0  0  0
    0.0000    0.0000    0.0000 C   0  0  0  0  0  0  0  0  0  0  0  0
    0.0000    0.0000    0.0000 C   0  0  0  0  0  0  0  0  0  0  0  0
    0.0000    0.0000    0.0000 C   0  0  0  0  0  0  0  0  0  0  0  0
    0.0000    0.0000    0.0000 N   0  0  0  0  0  0  0  0  0  0  0  0
    0.0000    0.0000    0.0000 C   0  0  0  0  0  0  0  0  0  0  0  0
    0.0000    0.0000    0.0000 C   0  0  0  0  0  0  0  0  0  0  0  0
    0.0000    0.0000    0.0000 C   0  0  0  0  0  0  0  0  0  0  0  0
    0.0000    0.0000    0.0000 C   0  0  0  0  0  0  0  0  0  0  0  0
    0.0000    0.0000    0.0000 C   0  0  0  0  0  0  0  0  0  0  0  0
    0.0000    0.0000    0.0000 C   0  0  0  0  0  0  0  0  0  0  0  0
    0.0000    0.0000    0.0000 C   0  0  0  0  0  0  0  0  0  0  0  0
    0.0000    0.0000    0.0000 C   0  0  0  0  0  0  0  0  0  0  0  0
    0.0000    0.0000    0.0000 C   0  0  0  0  0  0  0  0  0  0  0  0
    0.0000    0.0000    0.0000 C   0  0  0  0  0  0  0  0  0  0  0  0
    0.0000    0.0000    0.0000 C   0  0  0  0  0  0  0  0  0  0  0  0
  1  2  1  0
  2  3  1  0
  3  4  2  0
  3  5  1  0
  5  6  2  0
  6  7  1  0
  7  8  2  0
  8  9  1  0
  9 10  2  0
  9 11  1  0
 11 12  1  0
 11 13  1  0
 13 14  1  0
 14 15  1  0
 15 16  1  0
 16 17  1  0
 17 18  1  0
 18 19  2  0
 19 20  1  0
 20 21  2  0
 21 22  1  0
 22 23  2  0
 15 24  1  0
 24 25  1  0
 25 26  1  0
 10  5  1  0
 25 11  1  0
 23 18  1  0
M  END
>  <pIC50>  (160) 
7.62

>  <ChEMBL_ID>  (160) 
CHEMBL136421

>  <document_journal>  (160) 
Bioorg. Med. Chem. Lett.

>  <bao_endpoint>  (160) 
BAO_0000190

>  <potential_duplicate>  (160) 
False

>  <uo_units>  (160) 
UO_0000065

>  <canonical_smiles>  (160) 
CNC(=O)c1cccc(c1)[C@]2(C)CCN(CCc3ccccc3)C[C@@H]2C

>  <parent_molecule_chembl_id>  (160) 
CHEMBL136421

>  <assay_type>  (160) 
F

>  <src_id>  (160) 
1

>  <ligand_efficiency>  (160) 
None

>  <standard_flag>  (160) 
True

>  <molecule_chembl_id>  (160) 
CHEMBL136421

>  <target_organism>  (160) 
Homo sapiens

>  <standard_units>  (160) 
nM

>  <record_id>  (160) 
268041

>  <document_chembl_id>  (160) 
CHEMBL1136497

>  <bao_format>  (160) 
BAO_0000019

>  <data_validity_description>  (160) 
None

>  <activity_id>  (160) 
880449

>  <standard_type>  (160) 
IC50

>  <target_chembl_id>  (160) 
CHEMBL233

>  <data_validity_comment>  (160) 
None

>  <published_value>  (160) 
24

>  <document_year>  (160) 
2003

>  <target_pref_name>  (160) 
Mu opioid receptor

>  <assay_chembl_id>  (160) 
CHEMBL754686

>  <standard_relation>  (160) 
=

>  <assay_description>  (160) 
Concentration required to inhibit agonist (loperamide) stimulated [35S]GTP-gamma-S, binding to membranes containing the cloned human mu opioid receptor

>  <published_relation>  (160) 
=

>  <standard_value>  (160) 
24

>  <qudt_units>  (160) 
http://www.openphacts.org/units/Nanomolar

>  <target_tax_id>  (160) 
9606

>  <bao_label>  (160) 
assay format

>  <published_units>  (160) 
nM

>  <pchembl_value>  (160) 
7.62

>  <published_type>  (160) 
IC50

>  <activity_comment>  (160) 
None

$$$$

     RDKit          

 28 30  0  0  0  0  0  0  0  0999 V2000
    0.0000    0.0000    0.0000 C   0  0  0  0  0  0  0  0  0  0  0  0
    0.0000    0.0000    0.0000 C   0  0  0  0  0  0  0  0  0  0  0  0
    0.0000    0.0000    0.0000 N   0  0  0  0  0  0  0  0  0  0  0  0
    0.0000    0.0000    0.0000 C   0  0  0  0  0  0  0  0  0  0  0  0
    0.0000    0.0000    0.0000 C   0  0  0  0  0  0  0  0  0  0  0  0
    0.0000    0.0000    0.0000 C   0  0  0  0  0  0  0  0  0  0  0  0
    0.0000    0.0000    0.0000 O   0  0  0  0  0  0  0  0  0  0  0  0
    0.0000    0.0000    0.0000 C   0  0  0  0  0  0  0  0  0  0  0  0
    0.0000    0.0000    0.0000 C   0  0  0  0  0  0  0  0  0  0  0  0
    0.0000    0.0000    0.0000 C   0  0  0  0  0  0  0  0  0  0  0  0
    0.0000    0.0000    0.0000 C   0  0  0  0  0  0  0  0  0  0  0  0
    0.0000    0.0000    0.0000 C   0  0  0  0  0  0  0  0  0  0  0  0
    0.0000    0.0000    0.0000 C   0  0  0  0  0  0  0  0  0  0  0  0
    0.0000    0.0000    0.0000 C   0  0  0  0  0  0  0  0  0  0  0  0
    0.0000    0.0000    0.0000 N   0  0  0  0  0  0  0  0  0  0  0  0
    0.0000    0.0000    0.0000 C   0  0  0  0  0  0  0  0  0  0  0  0
    0.0000    0.0000    0.0000 C   0  0  0  0  0  0  0  0  0  0  0  0
    0.0000    0.0000    0.0000 N   0  0  0  0  0  0  0  0  0  0  0  0
    0.0000    0.0000    0.0000 C   0  0  0  0  0  0  0  0  0  0  0  0
    0.0000    0.0000    0.0000 C   0  0  0  0  0  0  0  0  0  0  0  0
    0.0000    0.0000    0.0000 C   0  0  0  0  0  0  0  0  0  0  0  0
    0.0000    0.0000    0.0000 C   0  0  0  0  0  0  0  0  0  0  0  0
    0.0000    0.0000    0.0000 C   0  0  0  0  0  0  0  0  0  0  0  0
    0.0000    0.0000    0.0000 C   0  0  0  0  0  0  0  0  0  0  0  0
    0.0000    0.0000    0.0000 C   0  0  0  0  0  0  0  0  0  0  0  0
    0.0000    0.0000    0.0000 O   0  0  0  0  0  0  0  0  0  0  0  0
    0.0000    0.0000    0.0000 C   0  0  0  0  0  0  0  0  0  0  0  0
    0.0000    0.0000    0.0000 C   0  0  0  0  0  0  0  0  0  0  0  0
  1  2  1  0
  2  3  1  0
  3  4  1  0
  4  5  1  0
  3  6  1  0
  6  7  2  0
  6  8  1  0
  8  9  2  0
  9 10  1  0
 10 11  2  0
 11 12  1  0
 12 13  2  0
 11 14  1  0
 14 15  1  0
 15 16  1  0
 16 17  1  0
 17 18  1  0
 18 19  1  0
 19 20  1  0
 14 21  1  0
 21 22  2  0
 22 23  1  0
 23 24  2  0
 24 25  1  0
 25 26  1  0
 26 27  1  0
 25 28  2  0
 13  8  1  0
 20 15  1  0
 28 21  1  0
M  END
>  <pIC50>  (161) 
5.28

>  <ChEMBL_ID>  (161) 
CHEMBL125742

>  <document_journal>  (161) 
J. Med. Chem.

>  <bao_endpoint>  (161) 
BAO_0000190

>  <potential_duplicate>  (161) 
False

>  <uo_units>  (161) 
UO_0000065

>  <canonical_smiles>  (161) 
CCN(CC)C(=O)c1ccc(cc1)C(N2CCNCC2)c3cccc(OC)c3

>  <parent_molecule_chembl_id>  (161) 
CHEMBL125742

>  <assay_type>  (161) 
B

>  <src_id>  (161) 
1

>  <ligand_efficiency>  (161) 
{u'le': u'0.26', u'bei': u'13.83', u'sei': u'11.78', u'lle': u'2.25'}

>  <standard_flag>  (161) 
True

>  <molecule_chembl_id>  (161) 
CHEMBL125742

>  <target_organism>  (161) 
Homo sapiens

>  <standard_units>  (161) 
nM

>  <record_id>  (161) 
242530

>  <document_chembl_id>  (161) 
CHEMBL1133468

>  <bao_format>  (161) 
BAO_0000357

>  <data_validity_description>  (161) 
None

>  <activity_id>  (161) 
885820

>  <standard_type>  (161) 
IC50

>  <target_chembl_id>  (161) 
CHEMBL233

>  <data_validity_comment>  (161) 
None

>  <published_value>  (161) 
5290

>  <document_year>  (161) 
2000

>  <target_pref_name>  (161) 
Mu opioid receptor

>  <assay_chembl_id>  (161) 
CHEMBL749744

>  <standard_relation>  (161) 
=

>  <assay_description>  (161) 
Binding affinity against cloned human Opioid receptor mu 1 using [125I]FK33824 as radioligand

>  <published_relation>  (161) 
=

>  <standard_value>  (161) 
5290

>  <qudt_units>  (161) 
http://www.openphacts.org/units/Nanomolar

>  <target_tax_id>  (161) 
9606

>  <bao_label>  (161) 
single protein format

>  <published_units>  (161) 
nM

>  <pchembl_value>  (161) 
5.28

>  <published_type>  (161) 
IC50

>  <activity_comment>  (161) 
None

$$$$

     RDKit          

 26 27  0  0  0  0  0  0  0  0999 V2000
    0.0000    0.0000    0.0000 C   0  0  0  0  0  0  0  0  0  0  0  0
    0.0000    0.0000    0.0000 C   0  0  0  0  0  0  0  0  0  0  0  0
    0.0000    0.0000    0.0000 N   0  0  0  0  0  0  0  0  0  0  0  0
    0.0000    0.0000    0.0000 C   0  0  0  0  0  0  0  0  0  0  0  0
    0.0000    0.0000    0.0000 C   0  0  0  0  0  0  0  0  0  0  0  0
    0.0000    0.0000    0.0000 C   0  0  0  0  0  0  0  0  0  0  0  0
    0.0000    0.0000    0.0000 O   0  0  0  0  0  0  0  0  0  0  0  0
    0.0000    0.0000    0.0000 C   0  0  0  0  0  0  0  0  0  0  0  0
    0.0000    0.0000    0.0000 C   0  0  0  0  0  0  0  0  0  0  0  0
    0.0000    0.0000    0.0000 C   0  0  0  0  0  0  0  0  0  0  0  0
    0.0000    0.0000    0.0000 C   0  0  0  0  0  0  0  0  0  0  0  0
    0.0000    0.0000    0.0000 C   0  0  0  0  0  0  0  0  0  0  0  0
    0.0000    0.0000    0.0000 C   0  0  0  0  0  0  0  0  0  0  0  0
    0.0000    0.0000    0.0000 C   0  0  0  0  0  0  0  0  0  0  0  0
    0.0000    0.0000    0.0000 N   0  0  0  0  0  0  0  0  0  0  0  0
    0.0000    0.0000    0.0000 C   0  0  0  0  0  0  0  0  0  0  0  0
    0.0000    0.0000    0.0000 C   0  0  0  0  0  0  0  0  0  0  0  0
    0.0000    0.0000    0.0000 C   0  0  0  0  0  0  0  0  0  0  0  0
    0.0000    0.0000    0.0000 N   0  0  0  0  0  0  0  0  0  0  0  0
    0.0000    0.0000    0.0000 C   0  0  0  0  0  0  0  0  0  0  0  0
    0.0000    0.0000    0.0000 C   0  0  0  0  0  0  0  0  0  0  0  0
    0.0000    0.0000    0.0000 C   0  0  0  0  0  0  0  0  0  0  0  0
    0.0000    0.0000    0.0000 C   0  0  0  0  0  0  0  0  0  0  0  0
    0.0000    0.0000    0.0000 C   0  0  0  0  0  0  0  0  0  0  0  0
    0.0000    0.0000    0.0000 C   0  0  0  0  0  0  0  0  0  0  0  0
    0.0000    0.0000    0.0000 C   0  0  0  0  0  0  0  0  0  0  0  0
  1  2  1  0
  2  3  1  0
  3  4  1  0
  4  5  1  0
  3  6  1  0
  6  7  2  0
  6  8  1  0
  8  9  2  0
  9 10  1  0
 10 11  2  0
 11 12  1  0
 12 13  2  0
 11 14  1  0
 14 15  1  0
 15 16  1  0
 15 17  1  0
 17 18  1  0
 18 19  1  0
 19 20  1  0
 14 21  1  0
 21 22  2  0
 22 23  1  0
 23 24  2  0
 24 25  1  0
 25 26  2  0
 13  8  1  0
 26 21  1  0
M  END
>  <pIC50>  (162) 
5.16

>  <ChEMBL_ID>  (162) 
CHEMBL338436

>  <document_journal>  (162) 
J. Med. Chem.

>  <bao_endpoint>  (162) 
BAO_0000190

>  <potential_duplicate>  (162) 
False

>  <uo_units>  (162) 
UO_0000065

>  <canonical_smiles>  (162) 
CCN(CC)C(=O)c1ccc(cc1)C(N(C)CCNC)c2ccccc2

>  <parent_molecule_chembl_id>  (162) 
CHEMBL338436

>  <assay_type>  (162) 
B

>  <src_id>  (162) 
1

>  <ligand_efficiency>  (162) 
{u'le': u'0.27', u'bei': u'14.59', u'sei': u'14.49', u'lle': u'1.93'}

>  <standard_flag>  (162) 
True

>  <molecule_chembl_id>  (162) 
CHEMBL338436

>  <target_organism>  (162) 
Homo sapiens

>  <standard_units>  (162) 
nM

>  <record_id>  (162) 
242567

>  <document_chembl_id>  (162) 
CHEMBL1133468

>  <bao_format>  (162) 
BAO_0000357

>  <data_validity_description>  (162) 
None

>  <activity_id>  (162) 
885826

>  <standard_type>  (162) 
IC50

>  <target_chembl_id>  (162) 
CHEMBL233

>  <data_validity_comment>  (162) 
None

>  <published_value>  (162) 
6970

>  <document_year>  (162) 
2000

>  <target_pref_name>  (162) 
Mu opioid receptor

>  <assay_chembl_id>  (162) 
CHEMBL749744

>  <standard_relation>  (162) 
=

>  <assay_description>  (162) 
Binding affinity against cloned human Opioid receptor mu 1 using [125I]FK33824 as radioligand

>  <published_relation>  (162) 
=

>  <standard_value>  (162) 
6970

>  <qudt_units>  (162) 
http://www.openphacts.org/units/Nanomolar

>  <target_tax_id>  (162) 
9606

>  <bao_label>  (162) 
single protein format

>  <published_units>  (162) 
nM

>  <pchembl_value>  (162) 
5.16

>  <published_type>  (162) 
IC50

>  <activity_comment>  (162) 
None

$$$$

     RDKit          

 27 29  0  0  0  0  0  0  0  0999 V2000
    0.0000    0.0000    0.0000 C   0  0  0  0  0  0  0  0  0  0  0  0
    0.0000    0.0000    0.0000 C   0  0  0  0  0  0  0  0  0  0  0  0
    0.0000    0.0000    0.0000 N   0  0  0  0  0  0  0  0  0  0  0  0
    0.0000    0.0000    0.0000 C   0  0  0  0  0  0  0  0  0  0  0  0
    0.0000    0.0000    0.0000 C   0  0  0  0  0  0  0  0  0  0  0  0
    0.0000    0.0000    0.0000 C   0  0  0  0  0  0  0  0  0  0  0  0
    0.0000    0.0000    0.0000 O   0  0  0  0  0  0  0  0  0  0  0  0
    0.0000    0.0000    0.0000 C   0  0  0  0  0  0  0  0  0  0  0  0
    0.0000    0.0000    0.0000 C   0  0  0  0  0  0  0  0  0  0  0  0
    0.0000    0.0000    0.0000 C   0  0  0  0  0  0  0  0  0  0  0  0
    0.0000    0.0000    0.0000 C   0  0  0  0  0  0  0  0  0  0  0  0
    0.0000    0.0000    0.0000 C   0  0  0  0  0  0  0  0  0  0  0  0
    0.0000    0.0000    0.0000 C   0  0  0  0  0  0  0  0  0  0  0  0
    0.0000    0.0000    0.0000 C   0  0  0  0  0  0  0  0  0  0  0  0
    0.0000    0.0000    0.0000 N   0  0  0  0  0  0  0  0  0  0  0  0
    0.0000    0.0000    0.0000 C   0  0  0  0  0  0  0  0  0  0  0  0
    0.0000    0.0000    0.0000 C   0  0  0  0  0  0  0  0  0  0  0  0
    0.0000    0.0000    0.0000 N   0  0  0  0  0  0  0  0  0  0  0  0
    0.0000    0.0000    0.0000 C   0  0  0  0  0  0  0  0  0  0  0  0
    0.0000    0.0000    0.0000 C   0  0  0  0  0  0  0  0  0  0  0  0
    0.0000    0.0000    0.0000 C   0  0  0  0  0  0  0  0  0  0  0  0
    0.0000    0.0000    0.0000 C   0  0  0  0  0  0  0  0  0  0  0  0
    0.0000    0.0000    0.0000 C   0  0  0  0  0  0  0  0  0  0  0  0
    0.0000    0.0000    0.0000 C   0  0  0  0  0  0  0  0  0  0  0  0
    0.0000    0.0000    0.0000 C   0  0  0  0  0  0  0  0  0  0  0  0
    0.0000    0.0000    0.0000 F   0  0  0  0  0  0  0  0  0  0  0  0
    0.0000    0.0000    0.0000 C   0  0  0  0  0  0  0  0  0  0  0  0
  1  2  1  0
  2  3  1  0
  3  4  1  0
  4  5  1  0
  3  6  1  0
  6  7  2  0
  6  8  1  0
  8  9  2  0
  9 10  1  0
 10 11  2  0
 11 12  1  0
 12 13  2  0
 11 14  1  0
 14 15  1  0
 15 16  1  0
 16 17  1  0
 17 18  1  0
 18 19  1  0
 19 20  1  0
 14 21  1  0
 21 22  2  0
 22 23  1  0
 23 24  2  0
 24 25  1  0
 25 26  1  0
 25 27  2  0
 13  8  1  0
 20 15  1  0
 27 21  1  0
M  END
>  <pIC50>  (163) 
5.25

>  <ChEMBL_ID>  (163) 
CHEMBL340834

>  <document_journal>  (163) 
J. Med. Chem.

>  <bao_endpoint>  (163) 
BAO_0000190

>  <potential_duplicate>  (163) 
False

>  <uo_units>  (163) 
UO_0000065

>  <canonical_smiles>  (163) 
CCN(CC)C(=O)c1ccc(cc1)C(N2CCNCC2)c3cccc(F)c3

>  <parent_molecule_chembl_id>  (163) 
CHEMBL340834

>  <assay_type>  (163) 
B

>  <src_id>  (163) 
1

>  <ligand_efficiency>  (163) 
{u'le': u'0.27', u'bei': u'14.2', u'sei': u'14.75', u'lle': u'2'}

>  <standard_flag>  (163) 
True

>  <molecule_chembl_id>  (163) 
CHEMBL340834

>  <target_organism>  (163) 
Homo sapiens

>  <standard_units>  (163) 
nM

>  <record_id>  (163) 
242542

>  <document_chembl_id>  (163) 
CHEMBL1133468

>  <bao_format>  (163) 
BAO_0000357

>  <data_validity_description>  (163) 
None

>  <activity_id>  (163) 
885830

>  <standard_type>  (163) 
IC50

>  <target_chembl_id>  (163) 
CHEMBL233

>  <data_validity_comment>  (163) 
None

>  <published_value>  (163) 
5647

>  <document_year>  (163) 
2000

>  <target_pref_name>  (163) 
Mu opioid receptor

>  <assay_chembl_id>  (163) 
CHEMBL749744

>  <standard_relation>  (163) 
=

>  <assay_description>  (163) 
Binding affinity against cloned human Opioid receptor mu 1 using [125I]FK33824 as radioligand

>  <published_relation>  (163) 
=

>  <standard_value>  (163) 
5647

>  <qudt_units>  (163) 
http://www.openphacts.org/units/Nanomolar

>  <target_tax_id>  (163) 
9606

>  <bao_label>  (163) 
single protein format

>  <published_units>  (163) 
nM

>  <pchembl_value>  (163) 
5.25

>  <published_type>  (163) 
IC50

>  <activity_comment>  (163) 
None

$$$$

     RDKit          

 30 33  0  0  0  0  0  0  0  0999 V2000
    0.0000    0.0000    0.0000 C   0  0  0  0  0  0  0  0  0  0  0  0
    0.0000    0.0000    0.0000 C   0  0  0  0  0  0  0  0  0  0  0  0
    0.0000    0.0000    0.0000 N   0  0  0  0  0  0  0  0  0  0  0  0
    0.0000    0.0000    0.0000 C   0  0  0  0  0  0  0  0  0  0  0  0
    0.0000    0.0000    0.0000 C   0  0  0  0  0  0  0  0  0  0  0  0
    0.0000    0.0000    0.0000 C   0  0  0  0  0  0  0  0  0  0  0  0
    0.0000    0.0000    0.0000 O   0  0  0  0  0  0  0  0  0  0  0  0
    0.0000    0.0000    0.0000 C   0  0  0  0  0  0  0  0  0  0  0  0
    0.0000    0.0000    0.0000 C   0  0  0  0  0  0  0  0  0  0  0  0
    0.0000    0.0000    0.0000 C   0  0  0  0  0  0  0  0  0  0  0  0
    0.0000    0.0000    0.0000 C   0  0  0  0  0  0  0  0  0  0  0  0
    0.0000    0.0000    0.0000 C   0  0  0  0  0  0  0  0  0  0  0  0
    0.0000    0.0000    0.0000 C   0  0  0  0  0  0  0  0  0  0  0  0
    0.0000    0.0000    0.0000 C   0  0  0  0  0  0  0  0  0  0  0  0
    0.0000    0.0000    0.0000 N   0  0  0  0  0  0  0  0  0  0  0  0
    0.0000    0.0000    0.0000 C   0  0  0  0  0  0  0  0  0  0  0  0
    0.0000    0.0000    0.0000 C   0  0  0  0  0  0  0  0  0  0  0  0
    0.0000    0.0000    0.0000 N   0  0  0  0  0  0  0  0  0  0  0  0
    0.0000    0.0000    0.0000 C   0  0  0  0  0  0  0  0  0  0  0  0
    0.0000    0.0000    0.0000 C   0  0  0  0  0  0  0  0  0  0  0  0
    0.0000    0.0000    0.0000 C   0  0  0  0  0  0  0  0  0  0  0  0
    0.0000    0.0000    0.0000 C   0  0  0  0  0  0  0  0  0  0  0  0
    0.0000    0.0000    0.0000 C   0  0  0  0  0  0  0  0  0  0  0  0
    0.0000    0.0000    0.0000 C   0  0  0  0  0  0  0  0  0  0  0  0
    0.0000    0.0000    0.0000 C   0  0  0  0  0  0  0  0  0  0  0  0
    0.0000    0.0000    0.0000 C   0  0  0  0  0  0  0  0  0  0  0  0
    0.0000    0.0000    0.0000 C   0  0  0  0  0  0  0  0  0  0  0  0
    0.0000    0.0000    0.0000 N   0  0  0  0  0  0  0  0  0  0  0  0
    0.0000    0.0000    0.0000 C   0  0  0  0  0  0  0  0  0  0  0  0
    0.0000    0.0000    0.0000 C   0  0  0  0  0  0  0  0  0  0  0  0
  1  2  1  0
  2  3  1  0
  3  4  1  0
  4  5  1  0
  3  6  1  0
  6  7  2  0
  6  8  1  0
  8  9  2  0
  9 10  1  0
 10 11  2  0
 11 12  1  0
 12 13  2  0
 11 14  1  0
 14 15  1  0
 15 16  1  0
 16 17  1  0
 17 18  1  0
 18 19  1  0
 19 20  1  0
 14 21  1  0
 21 22  2  0
 22 23  1  0
 23 24  2  0
 24 25  1  0
 25 26  2  0
 26 27  1  0
 27 28  2  0
 28 29  1  0
 29 30  2  0
 13  8  1  0
 20 15  1  0
 30 21  1  0
 29 24  1  0
M  END
>  <pIC50>  (164) 
5.99

>  <ChEMBL_ID>  (164) 
CHEMBL126819

>  <document_journal>  (164) 
J. Med. Chem.

>  <bao_endpoint>  (164) 
BAO_0000190

>  <potential_duplicate>  (164) 
False

>  <uo_units>  (164) 
UO_0000065

>  <canonical_smiles>  (164) 
CCN(CC)C(=O)c1ccc(cc1)C(N2CCNCC2)c3ccc4cccnc4c3

>  <parent_molecule_chembl_id>  (164) 
CHEMBL126819

>  <assay_type>  (164) 
B

>  <src_id>  (164) 
1

>  <ligand_efficiency>  (164) 
{u'le': u'0.27', u'bei': u'14.89', u'sei': u'12.36', u'lle': u'2.75'}

>  <standard_flag>  (164) 
True

>  <molecule_chembl_id>  (164) 
CHEMBL126819

>  <target_organism>  (164) 
Homo sapiens

>  <standard_units>  (164) 
nM

>  <record_id>  (164) 
242537

>  <document_chembl_id>  (164) 
CHEMBL1133468

>  <bao_format>  (164) 
BAO_0000357

>  <data_validity_description>  (164) 
None

>  <activity_id>  (164) 
887110

>  <standard_type>  (164) 
IC50

>  <target_chembl_id>  (164) 
CHEMBL233

>  <data_validity_comment>  (164) 
None

>  <published_value>  (164) 
1016

>  <document_year>  (164) 
2000

>  <target_pref_name>  (164) 
Mu opioid receptor

>  <assay_chembl_id>  (164) 
CHEMBL749744

>  <standard_relation>  (164) 
=

>  <assay_description>  (164) 
Binding affinity against cloned human Opioid receptor mu 1 using [125I]FK33824 as radioligand

>  <published_relation>  (164) 
=

>  <standard_value>  (164) 
1016

>  <qudt_units>  (164) 
http://www.openphacts.org/units/Nanomolar

>  <target_tax_id>  (164) 
9606

>  <bao_label>  (164) 
single protein format

>  <published_units>  (164) 
nM

>  <pchembl_value>  (164) 
5.99

>  <published_type>  (164) 
IC50

>  <activity_comment>  (164) 
None

$$$$

     RDKit          

 28 30  0  0  0  0  0  0  0  0999 V2000
    0.0000    0.0000    0.0000 C   0  0  0  0  0  0  0  0  0  0  0  0
    0.0000    0.0000    0.0000 C   0  0  0  0  0  0  0  0  0  0  0  0
    0.0000    0.0000    0.0000 N   0  0  0  0  0  0  0  0  0  0  0  0
    0.0000    0.0000    0.0000 C   0  0  0  0  0  0  0  0  0  0  0  0
    0.0000    0.0000    0.0000 C   0  0  0  0  0  0  0  0  0  0  0  0
    0.0000    0.0000    0.0000 C   0  0  0  0  0  0  0  0  0  0  0  0
    0.0000    0.0000    0.0000 O   0  0  0  0  0  0  0  0  0  0  0  0
    0.0000    0.0000    0.0000 C   0  0  0  0  0  0  0  0  0  0  0  0
    0.0000    0.0000    0.0000 C   0  0  0  0  0  0  0  0  0  0  0  0
    0.0000    0.0000    0.0000 C   0  0  0  0  0  0  0  0  0  0  0  0
    0.0000    0.0000    0.0000 C   0  0  0  0  0  0  0  0  0  0  0  0
    0.0000    0.0000    0.0000 C   0  0  0  0  0  0  0  0  0  0  0  0
    0.0000    0.0000    0.0000 C   0  0  0  0  0  0  0  0  0  0  0  0
    0.0000    0.0000    0.0000 C   0  0  0  0  0  0  0  0  0  0  0  0
    0.0000    0.0000    0.0000 N   0  0  0  0  0  0  0  0  0  0  0  0
    0.0000    0.0000    0.0000 C   0  0  0  0  0  0  0  0  0  0  0  0
    0.0000    0.0000    0.0000 C   0  0  0  0  0  0  0  0  0  0  0  0
    0.0000    0.0000    0.0000 N   0  0  0  0  0  0  0  0  0  0  0  0
    0.0000    0.0000    0.0000 C   0  0  0  0  0  0  0  0  0  0  0  0
    0.0000    0.0000    0.0000 C   0  0  0  0  0  0  0  0  0  0  0  0
    0.0000    0.0000    0.0000 C   0  0  0  0  0  0  0  0  0  0  0  0
    0.0000    0.0000    0.0000 C   0  0  0  0  0  0  0  0  0  0  0  0
    0.0000    0.0000    0.0000 C   0  0  0  0  0  0  0  0  0  0  0  0
    0.0000    0.0000    0.0000 C   0  0  0  0  0  0  0  0  0  0  0  0
    0.0000    0.0000    0.0000 O   0  0  0  0  0  0  0  0  0  0  0  0
    0.0000    0.0000    0.0000 C   0  0  0  0  0  0  0  0  0  0  0  0
    0.0000    0.0000    0.0000 C   0  0  0  0  0  0  0  0  0  0  0  0
    0.0000    0.0000    0.0000 C   0  0  0  0  0  0  0  0  0  0  0  0
  1  2  1  0
  2  3  1  0
  3  4  1  0
  4  5  1  0
  3  6  1  0
  6  7  2  0
  6  8  1  0
  8  9  2  0
  9 10  1  0
 10 11  2  0
 11 12  1  0
 12 13  2  0
 11 14  1  0
 14 15  1  0
 15 16  1  0
 16 17  1  0
 17 18  1  0
 18 19  1  0
 19 20  1  0
 14 21  1  0
 21 22  2  0
 22 23  1  0
 23 24  2  0
 24 25  1  0
 25 26  1  0
 24 27  1  0
 27 28  2  0
 13  8  1  0
 20 15  1  0
 28 21  1  0
M  END
>  <pIC50>  (165) 
5.34

>  <ChEMBL_ID>  (165) 
CHEMBL127638

>  <document_journal>  (165) 
J. Med. Chem.

>  <bao_endpoint>  (165) 
BAO_0000190

>  <potential_duplicate>  (165) 
False

>  <uo_units>  (165) 
UO_0000065

>  <canonical_smiles>  (165) 
CCN(CC)C(=O)c1ccc(cc1)C(N2CCNCC2)c3ccc(OC)cc3

>  <parent_molecule_chembl_id>  (165) 
CHEMBL127638

>  <assay_type>  (165) 
B

>  <src_id>  (165) 
1

>  <ligand_efficiency>  (165) 
{u'le': u'0.26', u'bei': u'14.01', u'sei': u'11.92', u'lle': u'2.31'}

>  <standard_flag>  (165) 
True

>  <molecule_chembl_id>  (165) 
CHEMBL127638

>  <target_organism>  (165) 
Homo sapiens

>  <standard_units>  (165) 
nM

>  <record_id>  (165) 
242545

>  <document_chembl_id>  (165) 
CHEMBL1133468

>  <bao_format>  (165) 
BAO_0000357

>  <data_validity_description>  (165) 
None

>  <activity_id>  (165) 
892990

>  <standard_type>  (165) 
IC50

>  <target_chembl_id>  (165) 
CHEMBL233

>  <data_validity_comment>  (165) 
None

>  <published_value>  (165) 
4538

>  <document_year>  (165) 
2000

>  <target_pref_name>  (165) 
Mu opioid receptor

>  <assay_chembl_id>  (165) 
CHEMBL749744

>  <standard_relation>  (165) 
=

>  <assay_description>  (165) 
Binding affinity against cloned human Opioid receptor mu 1 using [125I]FK33824 as radioligand

>  <published_relation>  (165) 
=

>  <standard_value>  (165) 
4538

>  <qudt_units>  (165) 
http://www.openphacts.org/units/Nanomolar

>  <target_tax_id>  (165) 
9606

>  <bao_label>  (165) 
single protein format

>  <published_units>  (165) 
nM

>  <pchembl_value>  (165) 
5.34

>  <published_type>  (165) 
IC50

>  <activity_comment>  (165) 
None

$$$$

     RDKit          

 31 33  0  0  0  0  0  0  0  0999 V2000
    0.0000    0.0000    0.0000 C   0  0  0  0  0  0  0  0  0  0  0  0
    0.0000    0.0000    0.0000 C   0  0  0  0  0  0  0  0  0  0  0  0
    0.0000    0.0000    0.0000 N   0  0  0  0  0  0  0  0  0  0  0  0
    0.0000    0.0000    0.0000 C   0  0  0  0  0  0  0  0  0  0  0  0
    0.0000    0.0000    0.0000 C   0  0  0  0  0  0  0  0  0  0  0  0
    0.0000    0.0000    0.0000 C   0  0  0  0  0  0  0  0  0  0  0  0
    0.0000    0.0000    0.0000 O   0  0  0  0  0  0  0  0  0  0  0  0
    0.0000    0.0000    0.0000 C   0  0  0  0  0  0  0  0  0  0  0  0
    0.0000    0.0000    0.0000 C   0  0  0  0  0  0  0  0  0  0  0  0
    0.0000    0.0000    0.0000 C   0  0  0  0  0  0  0  0  0  0  0  0
    0.0000    0.0000    0.0000 C   0  0  0  0  0  0  0  0  0  0  0  0
    0.0000    0.0000    0.0000 C   0  0  0  0  0  0  0  0  0  0  0  0
    0.0000    0.0000    0.0000 C   0  0  0  0  0  0  0  0  0  0  0  0
    0.0000    0.0000    0.0000 C   0  0  0  0  0  0  0  0  0  0  0  0
    0.0000    0.0000    0.0000 N   0  0  0  0  0  0  0  0  0  0  0  0
    0.0000    0.0000    0.0000 C   0  0  0  0  0  0  0  0  0  0  0  0
    0.0000    0.0000    0.0000 C   0  0  0  0  0  0  0  0  0  0  0  0
    0.0000    0.0000    0.0000 C   0  0  0  0  0  0  0  0  0  0  0  0
    0.0000    0.0000    0.0000 N   0  0  0  0  0  0  0  0  0  0  0  0
    0.0000    0.0000    0.0000 C   0  0  0  0  0  0  0  0  0  0  0  0
    0.0000    0.0000    0.0000 C   0  0  0  0  0  0  0  0  0  0  0  0
    0.0000    0.0000    0.0000 C   0  0  0  0  0  0  0  0  0  0  0  0
    0.0000    0.0000    0.0000 C   0  0  0  0  0  0  0  0  0  0  0  0
    0.0000    0.0000    0.0000 C   0  0  0  0  0  0  0  0  0  0  0  0
    0.0000    0.0000    0.0000 C   0  0  0  0  0  0  0  0  0  0  0  0
    0.0000    0.0000    0.0000 C   0  0  0  0  0  0  0  0  0  0  0  0
    0.0000    0.0000    0.0000 C   0  0  0  0  0  0  0  0  0  0  0  0
    0.0000    0.0000    0.0000 C   0  0  0  0  0  0  0  0  0  0  0  0
    0.0000    0.0000    0.0000 O   0  0  0  0  0  0  0  0  0  0  0  0
    0.0000    0.0000    0.0000 C   0  0  0  0  0  0  0  0  0  0  0  0
    0.0000    0.0000    0.0000 C   0  0  0  0  0  0  0  0  0  0  0  0
  1  2  1  0
  2  3  1  0
  3  4  1  0
  4  5  1  0
  3  6  1  0
  6  7  2  0
  6  8  1  0
  8  9  2  0
  9 10  1  0
 10 11  2  0
 11 12  1  0
 12 13  2  0
 11 14  1  0
 14 15  1  0
 15 16  1  0
 16 17  1  0
 17 18  1  0
 17 19  1  0
 19 20  1  0
 20 21  1  0
 21 22  1  0
 21 23  1  0
 14 24  1  0
 24 25  2  0
 25 26  1  0
 26 27  2  0
 27 28  1  0
 28 29  1  0
 29 30  1  0
 28 31  2  0
 13  8  1  0
 21 15  1  0
 31 24  1  0
M  END
>  <pIC50>  (166) 
6.55

>  <ChEMBL_ID>  (166) 
CHEMBL434817

>  <document_journal>  (166) 
J. Med. Chem.

>  <bao_endpoint>  (166) 
BAO_0000190

>  <potential_duplicate>  (166) 
False

>  <uo_units>  (166) 
UO_0000065

>  <canonical_smiles>  (166) 
CCN(CC)C(=O)c1ccc(cc1)C(N2CC(C)NCC2(C)C)c3cccc(OC)c3

>  <parent_molecule_chembl_id>  (166) 
CHEMBL434817

>  <assay_type>  (166) 
B

>  <src_id>  (166) 
1

>  <ligand_efficiency>  (166) 
{u'le': u'0.29', u'bei': u'15.46', u'sei': u'14.61', u'lle': u'2.56'}

>  <standard_flag>  (166) 
True

>  <molecule_chembl_id>  (166) 
CHEMBL434817

>  <target_organism>  (166) 
Homo sapiens

>  <standard_units>  (166) 
nM

>  <record_id>  (166) 
242529

>  <document_chembl_id>  (166) 
CHEMBL1133468

>  <bao_format>  (166) 
BAO_0000357

>  <data_validity_description>  (166) 
None

>  <activity_id>  (166) 
895213

>  <standard_type>  (166) 
IC50

>  <target_chembl_id>  (166) 
CHEMBL233

>  <data_validity_comment>  (166) 
None

>  <published_value>  (166) 
284

>  <document_year>  (166) 
2000

>  <target_pref_name>  (166) 
Mu opioid receptor

>  <assay_chembl_id>  (166) 
CHEMBL749744

>  <standard_relation>  (166) 
=

>  <assay_description>  (166) 
Binding affinity against cloned human Opioid receptor mu 1 using [125I]FK33824 as radioligand

>  <published_relation>  (166) 
=

>  <standard_value>  (166) 
284

>  <qudt_units>  (166) 
http://www.openphacts.org/units/Nanomolar

>  <target_tax_id>  (166) 
9606

>  <bao_label>  (166) 
single protein format

>  <published_units>  (166) 
nM

>  <pchembl_value>  (166) 
6.55

>  <published_type>  (166) 
IC50

>  <activity_comment>  (166) 
None

$$$$

     RDKit          

 30 33  0  0  0  0  0  0  0  0999 V2000
    0.0000    0.0000    0.0000 C   0  0  0  0  0  0  0  0  0  0  0  0
    0.0000    0.0000    0.0000 C   0  0  0  0  0  0  0  0  0  0  0  0
    0.0000    0.0000    0.0000 N   0  0  0  0  0  0  0  0  0  0  0  0
    0.0000    0.0000    0.0000 C   0  0  0  0  0  0  0  0  0  0  0  0
    0.0000    0.0000    0.0000 C   0  0  0  0  0  0  0  0  0  0  0  0
    0.0000    0.0000    0.0000 C   0  0  0  0  0  0  0  0  0  0  0  0
    0.0000    0.0000    0.0000 O   0  0  0  0  0  0  0  0  0  0  0  0
    0.0000    0.0000    0.0000 C   0  0  0  0  0  0  0  0  0  0  0  0
    0.0000    0.0000    0.0000 C   0  0  0  0  0  0  0  0  0  0  0  0
    0.0000    0.0000    0.0000 C   0  0  0  0  0  0  0  0  0  0  0  0
    0.0000    0.0000    0.0000 C   0  0  0  0  0  0  0  0  0  0  0  0
    0.0000    0.0000    0.0000 C   0  0  0  0  0  0  0  0  0  0  0  0
    0.0000    0.0000    0.0000 C   0  0  0  0  0  0  0  0  0  0  0  0
    0.0000    0.0000    0.0000 C   0  0  0  0  0  0  0  0  0  0  0  0
    0.0000    0.0000    0.0000 N   0  0  0  0  0  0  0  0  0  0  0  0
    0.0000    0.0000    0.0000 C   0  0  0  0  0  0  0  0  0  0  0  0
    0.0000    0.0000    0.0000 C   0  0  0  0  0  0  0  0  0  0  0  0
    0.0000    0.0000    0.0000 N   0  0  0  0  0  0  0  0  0  0  0  0
    0.0000    0.0000    0.0000 C   0  0  0  0  0  0  0  0  0  0  0  0
    0.0000    0.0000    0.0000 C   0  0  0  0  0  0  0  0  0  0  0  0
    0.0000    0.0000    0.0000 C   0  0  0  0  0  0  0  0  0  0  0  0
    0.0000    0.0000    0.0000 C   0  0  0  0  0  0  0  0  0  0  0  0
    0.0000    0.0000    0.0000 C   0  0  0  0  0  0  0  0  0  0  0  0
    0.0000    0.0000    0.0000 C   0  0  0  0  0  0  0  0  0  0  0  0
    0.0000    0.0000    0.0000 C   0  0  0  0  0  0  0  0  0  0  0  0
    0.0000    0.0000    0.0000 C   0  0  0  0  0  0  0  0  0  0  0  0
    0.0000    0.0000    0.0000 C   0  0  0  0  0  0  0  0  0  0  0  0
    0.0000    0.0000    0.0000 C   0  0  0  0  0  0  0  0  0  0  0  0
    0.0000    0.0000    0.0000 C   0  0  0  0  0  0  0  0  0  0  0  0
    0.0000    0.0000    0.0000 C   0  0  0  0  0  0  0  0  0  0  0  0
  1  2  1  0
  2  3  1  0
  3  4  1  0
  4  5  1  0
  3  6  1  0
  6  7  2  0
  6  8  1  0
  8  9  2  0
  9 10  1  0
 10 11  2  0
 11 12  1  0
 12 13  2  0
 11 14  1  0
 14 15  1  0
 15 16  1  0
 16 17  1  0
 17 18  1  0
 18 19  1  0
 19 20  1  0
 14 21  1  0
 21 22  2  0
 22 23  1  0
 23 24  2  0
 24 25  1  0
 25 26  2  0
 26 27  1  0
 27 28  2  0
 28 29  1  0
 29 30  2  0
 13  8  1  0
 20 15  1  0
 30 21  1  0
 29 24  1  0
M  END
>  <pIC50>  (167) 
5.57

>  <ChEMBL_ID>  (167) 
CHEMBL126223

>  <document_journal>  (167) 
J. Med. Chem.

>  <bao_endpoint>  (167) 
BAO_0000190

>  <potential_duplicate>  (167) 
False

>  <uo_units>  (167) 
UO_0000065

>  <canonical_smiles>  (167) 
CCN(CC)C(=O)c1ccc(cc1)C(N2CCNCC2)c3ccc4ccccc4c3

>  <parent_molecule_chembl_id>  (167) 
CHEMBL126223

>  <assay_type>  (167) 
B

>  <src_id>  (167) 
1

>  <ligand_efficiency>  (167) 
{u'le': u'0.25', u'bei': u'13.88', u'sei': u'15.66', u'lle': u'1.61'}

>  <standard_flag>  (167) 
True

>  <molecule_chembl_id>  (167) 
CHEMBL126223

>  <target_organism>  (167) 
Homo sapiens

>  <standard_units>  (167) 
nM

>  <record_id>  (167) 
242541

>  <document_chembl_id>  (167) 
CHEMBL1133468

>  <bao_format>  (167) 
BAO_0000357

>  <data_validity_description>  (167) 
None

>  <activity_id>  (167) 
895219

>  <standard_type>  (167) 
IC50

>  <target_chembl_id>  (167) 
CHEMBL233

>  <data_validity_comment>  (167) 
None

>  <published_value>  (167) 
2677

>  <document_year>  (167) 
2000

>  <target_pref_name>  (167) 
Mu opioid receptor

>  <assay_chembl_id>  (167) 
CHEMBL749744

>  <standard_relation>  (167) 
=

>  <assay_description>  (167) 
Binding affinity against cloned human Opioid receptor mu 1 using [125I]FK33824 as radioligand

>  <published_relation>  (167) 
=

>  <standard_value>  (167) 
2677

>  <qudt_units>  (167) 
http://www.openphacts.org/units/Nanomolar

>  <target_tax_id>  (167) 
9606

>  <bao_label>  (167) 
single protein format

>  <published_units>  (167) 
nM

>  <pchembl_value>  (167) 
5.57

>  <published_type>  (167) 
IC50

>  <activity_comment>  (167) 
None

$$$$

     RDKit          

 30 33  0  0  0  0  0  0  0  0999 V2000
    0.0000    0.0000    0.0000 C   0  0  0  0  0  0  0  0  0  0  0  0
    0.0000    0.0000    0.0000 C   0  0  0  0  0  0  0  0  0  0  0  0
    0.0000    0.0000    0.0000 N   0  0  0  0  0  0  0  0  0  0  0  0
    0.0000    0.0000    0.0000 C   0  0  0  0  0  0  0  0  0  0  0  0
    0.0000    0.0000    0.0000 C   0  0  0  0  0  0  0  0  0  0  0  0
    0.0000    0.0000    0.0000 C   0  0  0  0  0  0  0  0  0  0  0  0
    0.0000    0.0000    0.0000 O   0  0  0  0  0  0  0  0  0  0  0  0
    0.0000    0.0000    0.0000 C   0  0  0  0  0  0  0  0  0  0  0  0
    0.0000    0.0000    0.0000 C   0  0  0  0  0  0  0  0  0  0  0  0
    0.0000    0.0000    0.0000 C   0  0  0  0  0  0  0  0  0  0  0  0
    0.0000    0.0000    0.0000 C   0  0  0  0  0  0  0  0  0  0  0  0
    0.0000    0.0000    0.0000 C   0  0  0  0  0  0  0  0  0  0  0  0
    0.0000    0.0000    0.0000 C   0  0  0  0  0  0  0  0  0  0  0  0
    0.0000    0.0000    0.0000 C   0  0  0  0  0  0  0  0  0  0  0  0
    0.0000    0.0000    0.0000 N   0  0  0  0  0  0  0  0  0  0  0  0
    0.0000    0.0000    0.0000 C   0  0  0  0  0  0  0  0  0  0  0  0
    0.0000    0.0000    0.0000 C   0  0  0  0  0  0  0  0  0  0  0  0
    0.0000    0.0000    0.0000 N   0  0  0  0  0  0  0  0  0  0  0  0
    0.0000    0.0000    0.0000 C   0  0  0  0  0  0  0  0  0  0  0  0
    0.0000    0.0000    0.0000 C   0  0  0  0  0  0  0  0  0  0  0  0
    0.0000    0.0000    0.0000 C   0  0  0  0  0  0  0  0  0  0  0  0
    0.0000    0.0000    0.0000 C   0  0  0  0  0  0  0  0  0  0  0  0
    0.0000    0.0000    0.0000 C   0  0  0  0  0  0  0  0  0  0  0  0
    0.0000    0.0000    0.0000 C   0  0  0  0  0  0  0  0  0  0  0  0
    0.0000    0.0000    0.0000 C   0  0  0  0  0  0  0  0  0  0  0  0
    0.0000    0.0000    0.0000 C   0  0  0  0  0  0  0  0  0  0  0  0
    0.0000    0.0000    0.0000 C   0  0  0  0  0  0  0  0  0  0  0  0
    0.0000    0.0000    0.0000 C   0  0  0  0  0  0  0  0  0  0  0  0
    0.0000    0.0000    0.0000 N   0  0  0  0  0  0  0  0  0  0  0  0
    0.0000    0.0000    0.0000 C   0  0  0  0  0  0  0  0  0  0  0  0
  1  2  1  0
  2  3  1  0
  3  4  1  0
  4  5  1  0
  3  6  1  0
  6  7  2  0
  6  8  1  0
  8  9  2  0
  9 10  1  0
 10 11  2  0
 11 12  1  0
 12 13  2  0
 11 14  1  0
 14 15  1  0
 15 16  1  0
 16 17  1  0
 17 18  1  0
 18 19  1  0
 19 20  1  0
 14 21  1  0
 21 22  2  0
 22 23  1  0
 23 24  2  0
 24 25  1  0
 25 26  2  0
 26 27  1  0
 27 28  2  0
 28 29  1  0
 29 30  2  0
 13  8  1  0
 20 15  1  0
 30 21  1  0
 30 25  1  0
M  END
>  <pIC50>  (168) 
6.2

>  <ChEMBL_ID>  (168) 
CHEMBL129420

>  <document_journal>  (168) 
J. Med. Chem.

>  <bao_endpoint>  (168) 
BAO_0000190

>  <potential_duplicate>  (168) 
False

>  <uo_units>  (168) 
UO_0000065

>  <canonical_smiles>  (168) 
CCN(CC)C(=O)c1ccc(cc1)C(N2CCNCC2)c3cccc4cccnc34

>  <parent_molecule_chembl_id>  (168) 
CHEMBL129420

>  <assay_type>  (168) 
B

>  <src_id>  (168) 
1

>  <ligand_efficiency>  (168) 
{u'le': u'0.28', u'bei': u'15.4', u'sei': u'12.79', u'lle': u'2.96'}

>  <standard_flag>  (168) 
True

>  <molecule_chembl_id>  (168) 
CHEMBL129420

>  <target_organism>  (168) 
Homo sapiens

>  <standard_units>  (168) 
nM

>  <record_id>  (168) 
242565

>  <document_chembl_id>  (168) 
CHEMBL1133468

>  <bao_format>  (168) 
BAO_0000357

>  <data_validity_description>  (168) 
None

>  <activity_id>  (168) 
897653

>  <standard_type>  (168) 
IC50

>  <target_chembl_id>  (168) 
CHEMBL233

>  <data_validity_comment>  (168) 
None

>  <published_value>  (168) 
632

>  <document_year>  (168) 
2000

>  <target_pref_name>  (168) 
Mu opioid receptor

>  <assay_chembl_id>  (168) 
CHEMBL749744

>  <standard_relation>  (168) 
=

>  <assay_description>  (168) 
Binding affinity against cloned human Opioid receptor mu 1 using [125I]FK33824 as radioligand

>  <published_relation>  (168) 
=

>  <standard_value>  (168) 
632

>  <qudt_units>  (168) 
http://www.openphacts.org/units/Nanomolar

>  <target_tax_id>  (168) 
9606

>  <bao_label>  (168) 
single protein format

>  <published_units>  (168) 
nM

>  <pchembl_value>  (168) 
6.2

>  <published_type>  (168) 
IC50

>  <activity_comment>  (168) 
None

$$$$

     RDKit          

 27 29  0  0  0  0  0  0  0  0999 V2000
    0.0000    0.0000    0.0000 C   0  0  0  0  0  0  0  0  0  0  0  0
    0.0000    0.0000    0.0000 C   0  0  0  0  0  0  0  0  0  0  0  0
    0.0000    0.0000    0.0000 N   0  0  0  0  0  0  0  0  0  0  0  0
    0.0000    0.0000    0.0000 C   0  0  0  0  0  0  0  0  0  0  0  0
    0.0000    0.0000    0.0000 C   0  0  0  0  0  0  0  0  0  0  0  0
    0.0000    0.0000    0.0000 C   0  0  0  0  0  0  0  0  0  0  0  0
    0.0000    0.0000    0.0000 O   0  0  0  0  0  0  0  0  0  0  0  0
    0.0000    0.0000    0.0000 C   0  0  0  0  0  0  0  0  0  0  0  0
    0.0000    0.0000    0.0000 C   0  0  0  0  0  0  0  0  0  0  0  0
    0.0000    0.0000    0.0000 C   0  0  0  0  0  0  0  0  0  0  0  0
    0.0000    0.0000    0.0000 C   0  0  0  0  0  0  0  0  0  0  0  0
    0.0000    0.0000    0.0000 C   0  0  0  0  0  0  0  0  0  0  0  0
    0.0000    0.0000    0.0000 C   0  0  0  0  0  0  0  0  0  0  0  0
    0.0000    0.0000    0.0000 C   0  0  0  0  0  0  0  0  0  0  0  0
    0.0000    0.0000    0.0000 N   0  0  0  0  0  0  0  0  0  0  0  0
    0.0000    0.0000    0.0000 C   0  0  0  0  0  0  0  0  0  0  0  0
    0.0000    0.0000    0.0000 C   0  0  0  0  0  0  0  0  0  0  0  0
    0.0000    0.0000    0.0000 N   0  0  0  0  0  0  0  0  0  0  0  0
    0.0000    0.0000    0.0000 C   0  0  0  0  0  0  0  0  0  0  0  0
    0.0000    0.0000    0.0000 C   0  0  0  0  0  0  0  0  0  0  0  0
    0.0000    0.0000    0.0000 C   0  0  0  0  0  0  0  0  0  0  0  0
    0.0000    0.0000    0.0000 C   0  0  0  0  0  0  0  0  0  0  0  0
    0.0000    0.0000    0.0000 C   0  0  0  0  0  0  0  0  0  0  0  0
    0.0000    0.0000    0.0000 C   0  0  0  0  0  0  0  0  0  0  0  0
    0.0000    0.0000    0.0000 C   0  0  0  0  0  0  0  0  0  0  0  0
    0.0000    0.0000    0.0000 C   0  0  0  0  0  0  0  0  0  0  0  0
    0.0000    0.0000    0.0000 C   0  0  0  0  0  0  0  0  0  0  0  0
  1  2  1  0
  2  3  1  0
  3  4  1  0
  4  5  1  0
  3  6  1  0
  6  7  2  0
  6  8  1  0
  8  9  2  0
  9 10  1  0
 10 11  2  0
 11 12  1  0
 12 13  2  0
 11 14  1  0
 14 15  1  0
 15 16  1  0
 16 17  1  0
 17 18  1  0
 18 19  1  0
 19 20  1  0
 14 21  1  0
 21 22  2  0
 22 23  1  0
 23 24  2  0
 24 25  1  0
 24 26  1  0
 26 27  2  0
 13  8  1  0
 20 15  1  0
 27 21  1  0
M  END
>  <pIC50>  (169) 
5.15

>  <ChEMBL_ID>  (169) 
CHEMBL128005

>  <document_journal>  (169) 
J. Med. Chem.

>  <bao_endpoint>  (169) 
BAO_0000190

>  <potential_duplicate>  (169) 
False

>  <uo_units>  (169) 
UO_0000065

>  <canonical_smiles>  (169) 
CCN(CC)C(=O)c1ccc(cc1)C(N2CCNCC2)c3ccc(C)cc3

>  <parent_molecule_chembl_id>  (169) 
CHEMBL128005

>  <assay_type>  (169) 
B

>  <src_id>  (169) 
1

>  <ligand_efficiency>  (169) 
{u'le': u'0.26', u'bei': u'14.09', u'sei': u'14.47', u'lle': u'1.61'}

>  <standard_flag>  (169) 
True

>  <molecule_chembl_id>  (169) 
CHEMBL128005

>  <target_organism>  (169) 
Homo sapiens

>  <standard_units>  (169) 
nM

>  <record_id>  (169) 
242543

>  <document_chembl_id>  (169) 
CHEMBL1133468

>  <bao_format>  (169) 
BAO_0000357

>  <data_validity_description>  (169) 
None

>  <activity_id>  (169) 
898914

>  <standard_type>  (169) 
IC50

>  <target_chembl_id>  (169) 
CHEMBL233

>  <data_validity_comment>  (169) 
None

>  <published_value>  (169) 
7092

>  <document_year>  (169) 
2000

>  <target_pref_name>  (169) 
Mu opioid receptor

>  <assay_chembl_id>  (169) 
CHEMBL749744

>  <standard_relation>  (169) 
=

>  <assay_description>  (169) 
Binding affinity against cloned human Opioid receptor mu 1 using [125I]FK33824 as radioligand

>  <published_relation>  (169) 
=

>  <standard_value>  (169) 
7092

>  <qudt_units>  (169) 
http://www.openphacts.org/units/Nanomolar

>  <target_tax_id>  (169) 
9606

>  <bao_label>  (169) 
single protein format

>  <published_units>  (169) 
nM

>  <pchembl_value>  (169) 
5.15

>  <published_type>  (169) 
IC50

>  <activity_comment>  (169) 
None

$$$$

     RDKit          

 29 32  0  0  0  0  0  0  0  0999 V2000
    0.0000    0.0000    0.0000 C   0  0  0  0  0  0  0  0  0  0  0  0
    0.0000    0.0000    0.0000 C   0  0  0  0  0  0  0  0  0  0  0  0
    0.0000    0.0000    0.0000 N   0  0  0  0  0  0  0  0  0  0  0  0
    0.0000    0.0000    0.0000 C   0  0  0  0  0  0  0  0  0  0  0  0
    0.0000    0.0000    0.0000 C   0  0  0  0  0  0  0  0  0  0  0  0
    0.0000    0.0000    0.0000 C   0  0  0  0  0  0  0  0  0  0  0  0
    0.0000    0.0000    0.0000 O   0  0  0  0  0  0  0  0  0  0  0  0
    0.0000    0.0000    0.0000 C   0  0  0  0  0  0  0  0  0  0  0  0
    0.0000    0.0000    0.0000 C   0  0  0  0  0  0  0  0  0  0  0  0
    0.0000    0.0000    0.0000 C   0  0  0  0  0  0  0  0  0  0  0  0
    0.0000    0.0000    0.0000 C   0  0  0  0  0  0  0  0  0  0  0  0
    0.0000    0.0000    0.0000 C   0  0  0  0  0  0  0  0  0  0  0  0
    0.0000    0.0000    0.0000 C   0  0  0  0  0  0  0  0  0  0  0  0
    0.0000    0.0000    0.0000 C   0  0  0  0  0  0  0  0  0  0  0  0
    0.0000    0.0000    0.0000 N   0  0  0  0  0  0  0  0  0  0  0  0
    0.0000    0.0000    0.0000 C   0  0  0  0  0  0  0  0  0  0  0  0
    0.0000    0.0000    0.0000 C   0  0  0  0  0  0  0  0  0  0  0  0
    0.0000    0.0000    0.0000 N   0  0  0  0  0  0  0  0  0  0  0  0
    0.0000    0.0000    0.0000 C   0  0  0  0  0  0  0  0  0  0  0  0
    0.0000    0.0000    0.0000 C   0  0  0  0  0  0  0  0  0  0  0  0
    0.0000    0.0000    0.0000 C   0  0  0  0  0  0  0  0  0  0  0  0
    0.0000    0.0000    0.0000 C   0  0  0  0  0  0  0  0  0  0  0  0
    0.0000    0.0000    0.0000 C   0  0  0  0  0  0  0  0  0  0  0  0
    0.0000    0.0000    0.0000 C   0  0  0  0  0  0  0  0  0  0  0  0
    0.0000    0.0000    0.0000 C   0  0  0  0  0  0  0  0  0  0  0  0
    0.0000    0.0000    0.0000 C   0  0  0  0  0  0  0  0  0  0  0  0
    0.0000    0.0000    0.0000 N   0  0  0  0  0  0  0  0  0  0  0  0
    0.0000    0.0000    0.0000 C   0  0  0  0  0  0  0  0  0  0  0  0
    0.0000    0.0000    0.0000 C   0  0  0  0  0  0  0  0  0  0  0  0
  1  2  1  0
  2  3  1  0
  3  4  1  0
  4  5  1  0
  3  6  1  0
  6  7  2  0
  6  8  1  0
  8  9  2  0
  9 10  1  0
 10 11  2  0
 11 12  1  0
 12 13  2  0
 11 14  1  0
 14 15  1  0
 15 16  1  0
 16 17  1  0
 17 18  1  0
 18 19  1  0
 19 20  1  0
 14 21  1  0
 21 22  2  0
 22 23  1  0
 23 24  2  0
 24 25  1  0
 25 26  2  0
 26 27  1  0
 27 28  1  0
 28 29  2  0
 13  8  1  0
 20 15  1  0
 29 21  1  0
 28 24  1  0
M  END
>  <pIC50>  (170) 
5.65

>  <ChEMBL_ID>  (170) 
CHEMBL2112649

>  <document_journal>  (170) 
J. Med. Chem.

>  <bao_endpoint>  (170) 
BAO_0000190

>  <potential_duplicate>  (170) 
False

>  <uo_units>  (170) 
UO_0000065

>  <canonical_smiles>  (170) 
CCN(CC)C(=O)c1ccc(cc1)C(N2CCNCC2)c3ccc4cc[nH]c4c3

>  <parent_molecule_chembl_id>  (170) 
CHEMBL2112649

>  <assay_type>  (170) 
B

>  <src_id>  (170) 
1

>  <ligand_efficiency>  (170) 
{u'le': u'0.27', u'bei': u'14.48', u'sei': u'11', u'lle': u'2.31'}

>  <standard_flag>  (170) 
True

>  <molecule_chembl_id>  (170) 
CHEMBL2112649

>  <target_organism>  (170) 
Homo sapiens

>  <standard_units>  (170) 
nM

>  <record_id>  (170) 
242534

>  <document_chembl_id>  (170) 
CHEMBL1133468

>  <bao_format>  (170) 
BAO_0000357

>  <data_validity_description>  (170) 
None

>  <activity_id>  (170) 
898920

>  <standard_type>  (170) 
IC50

>  <target_chembl_id>  (170) 
CHEMBL233

>  <data_validity_comment>  (170) 
None

>  <published_value>  (170) 
2222

>  <document_year>  (170) 
2000

>  <target_pref_name>  (170) 
Mu opioid receptor

>  <assay_chembl_id>  (170) 
CHEMBL749744

>  <standard_relation>  (170) 
=

>  <assay_description>  (170) 
Binding affinity against cloned human Opioid receptor mu 1 using [125I]FK33824 as radioligand

>  <published_relation>  (170) 
=

>  <standard_value>  (170) 
2222

>  <qudt_units>  (170) 
http://www.openphacts.org/units/Nanomolar

>  <target_tax_id>  (170) 
9606

>  <bao_label>  (170) 
single protein format

>  <published_units>  (170) 
nM

>  <pchembl_value>  (170) 
5.65

>  <published_type>  (170) 
IC50

>  <activity_comment>  (170) 
None

$$$$

     RDKit          

 27 29  0  0  0  0  0  0  0  0999 V2000
    0.0000    0.0000    0.0000 C   0  0  0  0  0  0  0  0  0  0  0  0
    0.0000    0.0000    0.0000 C   0  0  0  0  0  0  0  0  0  0  0  0
    0.0000    0.0000    0.0000 N   0  0  0  0  0  0  0  0  0  0  0  0
    0.0000    0.0000    0.0000 C   0  0  0  0  0  0  0  0  0  0  0  0
    0.0000    0.0000    0.0000 C   0  0  0  0  0  0  0  0  0  0  0  0
    0.0000    0.0000    0.0000 C   0  0  0  0  0  0  0  0  0  0  0  0
    0.0000    0.0000    0.0000 O   0  0  0  0  0  0  0  0  0  0  0  0
    0.0000    0.0000    0.0000 C   0  0  0  0  0  0  0  0  0  0  0  0
    0.0000    0.0000    0.0000 C   0  0  0  0  0  0  0  0  0  0  0  0
    0.0000    0.0000    0.0000 C   0  0  0  0  0  0  0  0  0  0  0  0
    0.0000    0.0000    0.0000 C   0  0  0  0  0  0  0  0  0  0  0  0
    0.0000    0.0000    0.0000 C   0  0  0  0  0  0  0  0  0  0  0  0
    0.0000    0.0000    0.0000 C   0  0  0  0  0  0  0  0  0  0  0  0
    0.0000    0.0000    0.0000 C   0  0  0  0  0  0  0  0  0  0  0  0
    0.0000    0.0000    0.0000 N   0  0  0  0  0  0  0  0  0  0  0  0
    0.0000    0.0000    0.0000 C   0  0  0  0  0  0  0  0  0  0  0  0
    0.0000    0.0000    0.0000 C   0  0  0  0  0  0  0  0  0  0  0  0
    0.0000    0.0000    0.0000 C   0  0  0  0  0  0  0  0  0  0  0  0
    0.0000    0.0000    0.0000 N   0  0  0  0  0  0  0  0  0  0  0  0
    0.0000    0.0000    0.0000 C   0  0  0  0  0  0  0  0  0  0  0  0
    0.0000    0.0000    0.0000 C   0  0  0  0  0  0  0  0  0  0  0  0
    0.0000    0.0000    0.0000 C   0  0  0  0  0  0  0  0  0  0  0  0
    0.0000    0.0000    0.0000 C   0  0  0  0  0  0  0  0  0  0  0  0
    0.0000    0.0000    0.0000 C   0  0  0  0  0  0  0  0  0  0  0  0
    0.0000    0.0000    0.0000 C   0  0  0  0  0  0  0  0  0  0  0  0
    0.0000    0.0000    0.0000 C   0  0  0  0  0  0  0  0  0  0  0  0
    0.0000    0.0000    0.0000 C   0  0  0  0  0  0  0  0  0  0  0  0
  1  2  1  0
  2  3  1  0
  3  4  1  0
  4  5  1  0
  3  6  1  0
  6  7  2  0
  6  8  1  0
  8  9  2  0
  9 10  1  0
 10 11  2  0
 11 12  1  0
 12 13  2  0
 11 14  1  0
 14 15  1  0
 15 16  1  0
 16 17  1  0
 17 18  1  0
 18 19  1  0
 19 20  1  0
 20 21  1  0
 14 22  1  0
 22 23  2  0
 23 24  1  0
 24 25  2  0
 25 26  1  0
 26 27  2  0
 13  8  1  0
 21 15  1  0
 27 22  1  0
M  END
>  <pIC50>  (171) 
5.64

>  <ChEMBL_ID>  (171) 
CHEMBL127507

>  <document_journal>  (171) 
J. Med. Chem.

>  <bao_endpoint>  (171) 
BAO_0000190

>  <potential_duplicate>  (171) 
False

>  <uo_units>  (171) 
UO_0000065

>  <canonical_smiles>  (171) 
CCN(CC)C(=O)c1ccc(cc1)C(N2CCCNCC2)c3ccccc3

>  <parent_molecule_chembl_id>  (171) 
CHEMBL127507

>  <assay_type>  (171) 
B

>  <src_id>  (171) 
1

>  <ligand_efficiency>  (171) 
{u'le': u'0.29', u'bei': u'15.43', u'sei': u'15.85', u'lle': u'2.53'}

>  <standard_flag>  (171) 
True

>  <molecule_chembl_id>  (171) 
CHEMBL127507

>  <target_organism>  (171) 
Homo sapiens

>  <standard_units>  (171) 
nM

>  <record_id>  (171) 
242568

>  <document_chembl_id>  (171) 
CHEMBL1133468

>  <bao_format>  (171) 
BAO_0000357

>  <data_validity_description>  (171) 
None

>  <activity_id>  (171) 
901358

>  <standard_type>  (171) 
IC50

>  <target_chembl_id>  (171) 
CHEMBL233

>  <data_validity_comment>  (171) 
None

>  <published_value>  (171) 
2290

>  <document_year>  (171) 
2000

>  <target_pref_name>  (171) 
Mu opioid receptor

>  <assay_chembl_id>  (171) 
CHEMBL749744

>  <standard_relation>  (171) 
=

>  <assay_description>  (171) 
Binding affinity against cloned human Opioid receptor mu 1 using [125I]FK33824 as radioligand

>  <published_relation>  (171) 
=

>  <standard_value>  (171) 
2290

>  <qudt_units>  (171) 
http://www.openphacts.org/units/Nanomolar

>  <target_tax_id>  (171) 
9606

>  <bao_label>  (171) 
single protein format

>  <published_units>  (171) 
nM

>  <pchembl_value>  (171) 
5.64

>  <published_type>  (171) 
IC50

>  <activity_comment>  (171) 
None

$$$$

     RDKit          

 30 33  0  0  0  0  0  0  0  0999 V2000
    0.0000    0.0000    0.0000 C   0  0  0  0  0  0  0  0  0  0  0  0
    0.0000    0.0000    0.0000 C   0  0  0  0  0  0  0  0  0  0  0  0
    0.0000    0.0000    0.0000 N   0  0  0  0  0  0  0  0  0  0  0  0
    0.0000    0.0000    0.0000 C   0  0  0  0  0  0  0  0  0  0  0  0
    0.0000    0.0000    0.0000 C   0  0  0  0  0  0  0  0  0  0  0  0
    0.0000    0.0000    0.0000 C   0  0  0  0  0  0  0  0  0  0  0  0
    0.0000    0.0000    0.0000 O   0  0  0  0  0  0  0  0  0  0  0  0
    0.0000    0.0000    0.0000 C   0  0  0  0  0  0  0  0  0  0  0  0
    0.0000    0.0000    0.0000 C   0  0  0  0  0  0  0  0  0  0  0  0
    0.0000    0.0000    0.0000 C   0  0  0  0  0  0  0  0  0  0  0  0
    0.0000    0.0000    0.0000 C   0  0  0  0  0  0  0  0  0  0  0  0
    0.0000    0.0000    0.0000 C   0  0  0  0  0  0  0  0  0  0  0  0
    0.0000    0.0000    0.0000 C   0  0  0  0  0  0  0  0  0  0  0  0
    0.0000    0.0000    0.0000 C   0  0  0  0  0  0  0  0  0  0  0  0
    0.0000    0.0000    0.0000 N   0  0  0  0  0  0  0  0  0  0  0  0
    0.0000    0.0000    0.0000 C   0  0  0  0  0  0  0  0  0  0  0  0
    0.0000    0.0000    0.0000 C   0  0  0  0  0  0  0  0  0  0  0  0
    0.0000    0.0000    0.0000 N   0  0  0  0  0  0  0  0  0  0  0  0
    0.0000    0.0000    0.0000 C   0  0  0  0  0  0  0  0  0  0  0  0
    0.0000    0.0000    0.0000 C   0  0  0  0  0  0  0  0  0  0  0  0
    0.0000    0.0000    0.0000 C   0  0  0  0  0  0  0  0  0  0  0  0
    0.0000    0.0000    0.0000 C   0  0  0  0  0  0  0  0  0  0  0  0
    0.0000    0.0000    0.0000 C   0  0  0  0  0  0  0  0  0  0  0  0
    0.0000    0.0000    0.0000 C   0  0  0  0  0  0  0  0  0  0  0  0
    0.0000    0.0000    0.0000 C   0  0  0  0  0  0  0  0  0  0  0  0
    0.0000    0.0000    0.0000 C   0  0  0  0  0  0  0  0  0  0  0  0
    0.0000    0.0000    0.0000 C   0  0  0  0  0  0  0  0  0  0  0  0
    0.0000    0.0000    0.0000 C   0  0  0  0  0  0  0  0  0  0  0  0
    0.0000    0.0000    0.0000 C   0  0  0  0  0  0  0  0  0  0  0  0
    0.0000    0.0000    0.0000 C   0  0  0  0  0  0  0  0  0  0  0  0
  1  2  1  0
  2  3  1  0
  3  4  1  0
  4  5  1  0
  3  6  1  0
  6  7  2  0
  6  8  1  0
  8  9  2  0
  9 10  1  0
 10 11  2  0
 11 12  1  0
 12 13  2  0
 11 14  1  0
 14 15  1  0
 15 16  1  0
 16 17  1  0
 17 18  1  0
 18 19  1  0
 19 20  1  0
 14 21  1  0
 21 22  2  0
 22 23  1  0
 23 24  2  0
 24 25  1  0
 25 26  2  0
 26 27  1  0
 27 28  2  0
 28 29  1  0
 29 30  2  0
 13  8  1  0
 20 15  1  0
 30 21  1  0
 30 25  1  0
M  END
>  <pIC50>  (172) 
6.11

>  <ChEMBL_ID>  (172) 
CHEMBL125734

>  <document_journal>  (172) 
J. Med. Chem.

>  <bao_endpoint>  (172) 
BAO_0000190

>  <potential_duplicate>  (172) 
False

>  <uo_units>  (172) 
UO_0000065

>  <canonical_smiles>  (172) 
CCN(CC)C(=O)c1ccc(cc1)C(N2CCNCC2)c3cccc4ccccc34

>  <parent_molecule_chembl_id>  (172) 
CHEMBL125734

>  <assay_type>  (172) 
B

>  <src_id>  (172) 
1

>  <ligand_efficiency>  (172) 
{u'le': u'0.28', u'bei': u'15.22', u'sei': u'17.17', u'lle': u'2.15'}

>  <standard_flag>  (172) 
True

>  <molecule_chembl_id>  (172) 
CHEMBL125734

>  <target_organism>  (172) 
Homo sapiens

>  <standard_units>  (172) 
nM

>  <record_id>  (172) 
242540

>  <document_chembl_id>  (172) 
CHEMBL1133468

>  <bao_format>  (172) 
BAO_0000357

>  <data_validity_description>  (172) 
None

>  <activity_id>  (172) 
901365

>  <standard_type>  (172) 
IC50

>  <target_chembl_id>  (172) 
CHEMBL233

>  <data_validity_comment>  (172) 
None

>  <published_value>  (172) 
777

>  <document_year>  (172) 
2000

>  <target_pref_name>  (172) 
Mu opioid receptor

>  <assay_chembl_id>  (172) 
CHEMBL749744

>  <standard_relation>  (172) 
=

>  <assay_description>  (172) 
Binding affinity against cloned human Opioid receptor mu 1 using [125I]FK33824 as radioligand

>  <published_relation>  (172) 
=

>  <standard_value>  (172) 
777

>  <qudt_units>  (172) 
http://www.openphacts.org/units/Nanomolar

>  <target_tax_id>  (172) 
9606

>  <bao_label>  (172) 
single protein format

>  <published_units>  (172) 
nM

>  <pchembl_value>  (172) 
6.11

>  <published_type>  (172) 
IC50

>  <activity_comment>  (172) 
None

$$$$

     RDKit          

 26 28  0  0  0  0  0  0  0  0999 V2000
    0.0000    0.0000    0.0000 C   0  0  0  0  0  0  0  0  0  0  0  0
    0.0000    0.0000    0.0000 C   0  0  0  0  0  0  0  0  0  0  0  0
    0.0000    0.0000    0.0000 N   0  0  0  0  0  0  0  0  0  0  0  0
    0.0000    0.0000    0.0000 C   0  0  0  0  0  0  0  0  0  0  0  0
    0.0000    0.0000    0.0000 C   0  0  0  0  0  0  0  0  0  0  0  0
    0.0000    0.0000    0.0000 C   0  0  0  0  0  0  0  0  0  0  0  0
    0.0000    0.0000    0.0000 O   0  0  0  0  0  0  0  0  0  0  0  0
    0.0000    0.0000    0.0000 C   0  0  0  0  0  0  0  0  0  0  0  0
    0.0000    0.0000    0.0000 C   0  0  0  0  0  0  0  0  0  0  0  0
    0.0000    0.0000    0.0000 C   0  0  0  0  0  0  0  0  0  0  0  0
    0.0000    0.0000    0.0000 C   0  0  0  0  0  0  0  0  0  0  0  0
    0.0000    0.0000    0.0000 C   0  0  0  0  0  0  0  0  0  0  0  0
    0.0000    0.0000    0.0000 C   0  0  0  0  0  0  0  0  0  0  0  0
    0.0000    0.0000    0.0000 C   0  0  0  0  0  0  0  0  0  0  0  0
    0.0000    0.0000    0.0000 C   0  0  0  0  0  0  0  0  0  0  0  0
    0.0000    0.0000    0.0000 C   0  0  0  0  0  0  0  0  0  0  0  0
    0.0000    0.0000    0.0000 C   0  0  0  0  0  0  0  0  0  0  0  0
    0.0000    0.0000    0.0000 C   0  0  0  0  0  0  0  0  0  0  0  0
    0.0000    0.0000    0.0000 C   0  0  0  0  0  0  0  0  0  0  0  0
    0.0000    0.0000    0.0000 C   0  0  0  0  0  0  0  0  0  0  0  0
    0.0000    0.0000    0.0000 N   0  0  0  0  0  0  0  0  0  0  0  0
    0.0000    0.0000    0.0000 C   0  0  0  0  0  0  0  0  0  0  0  0
    0.0000    0.0000    0.0000 C   0  0  0  0  0  0  0  0  0  0  0  0
    0.0000    0.0000    0.0000 N   0  0  0  0  0  0  0  0  0  0  0  0
    0.0000    0.0000    0.0000 C   0  0  0  0  0  0  0  0  0  0  0  0
    0.0000    0.0000    0.0000 C   0  0  0  0  0  0  0  0  0  0  0  0
  1  2  1  0
  2  3  1  0
  3  4  1  0
  4  5  1  0
  3  6  1  0
  6  7  2  0
  6  8  1  0
  8  9  2  0
  9 10  1  0
 10 11  2  0
 11 12  1  0
 12 13  2  0
 11 14  1  0
 14 15  1  0
 15 16  1  0
 16 17  1  0
 17 18  1  0
 18 19  1  0
 19 20  1  0
 14 21  1  0
 21 22  1  0
 22 23  1  0
 23 24  1  0
 24 25  1  0
 25 26  1  0
 13  8  1  0
 20 15  1  0
 26 21  1  0
M  END
>  <pIC50>  (173) 
6.73

>  <ChEMBL_ID>  (173) 
CHEMBL340724

>  <document_journal>  (173) 
J. Med. Chem.

>  <bao_endpoint>  (173) 
BAO_0000190

>  <potential_duplicate>  (173) 
False

>  <uo_units>  (173) 
UO_0000065

>  <canonical_smiles>  (173) 
CCN(CC)C(=O)c1ccc(cc1)C(C2CCCCC2)N3CCNCC3

>  <parent_molecule_chembl_id>  (173) 
CHEMBL340724

>  <assay_type>  (173) 
B

>  <src_id>  (173) 
1

>  <ligand_efficiency>  (173) 
{u'le': u'0.35', u'bei': u'18.83', u'sei': u'18.92', u'lle': u'3.08'}

>  <standard_flag>  (173) 
True

>  <molecule_chembl_id>  (173) 
CHEMBL340724

>  <target_organism>  (173) 
Homo sapiens

>  <standard_units>  (173) 
nM

>  <record_id>  (173) 
242539

>  <document_chembl_id>  (173) 
CHEMBL1133468

>  <bao_format>  (173) 
BAO_0000357

>  <data_validity_description>  (173) 
None

>  <activity_id>  (173) 
901371

>  <standard_type>  (173) 
IC50

>  <target_chembl_id>  (173) 
CHEMBL233

>  <data_validity_comment>  (173) 
None

>  <published_value>  (173) 
185

>  <document_year>  (173) 
2000

>  <target_pref_name>  (173) 
Mu opioid receptor

>  <assay_chembl_id>  (173) 
CHEMBL749744

>  <standard_relation>  (173) 
=

>  <assay_description>  (173) 
Binding affinity against cloned human Opioid receptor mu 1 using [125I]FK33824 as radioligand

>  <published_relation>  (173) 
=

>  <standard_value>  (173) 
185

>  <qudt_units>  (173) 
http://www.openphacts.org/units/Nanomolar

>  <target_tax_id>  (173) 
9606

>  <bao_label>  (173) 
single protein format

>  <published_units>  (173) 
nM

>  <pchembl_value>  (173) 
6.73

>  <published_type>  (173) 
IC50

>  <activity_comment>  (173) 
None

$$$$

     RDKit          

 23 25  0  0  0  0  0  0  0  0999 V2000
    0.0000    0.0000    0.0000 C   0  0  0  0  0  0  0  0  0  0  0  0
    0.0000    0.0000    0.0000 C   0  0  0  0  0  0  0  0  0  0  0  0
    0.0000    0.0000    0.0000 C   0  0  0  0  0  0  0  0  0  0  0  0
    0.0000    0.0000    0.0000 N   0  0  0  0  0  0  0  0  0  0  0  0
    0.0000    0.0000    0.0000 C   0  0  0  0  0  0  0  0  0  0  0  0
    0.0000    0.0000    0.0000 C   0  0  0  0  0  0  0  0  0  0  0  0
    0.0000    0.0000    0.0000 C   0  0  0  0  0  0  0  0  0  0  0  0
    0.0000    0.0000    0.0000 C   0  0  0  0  0  0  0  0  0  0  0  0
    0.0000    0.0000    0.0000 C   0  0  0  0  0  0  0  0  0  0  0  0
    0.0000    0.0000    0.0000 C   0  0  0  0  0  0  0  0  0  0  0  0
    0.0000    0.0000    0.0000 C   0  0  0  0  0  0  0  0  0  0  0  0
    0.0000    0.0000    0.0000 C   0  0  0  0  0  0  0  0  0  0  0  0
    0.0000    0.0000    0.0000 C   0  0  0  0  0  0  0  0  0  0  0  0
    0.0000    0.0000    0.0000 C   0  0  0  0  0  0  0  0  0  0  0  0
    0.0000    0.0000    0.0000 C   0  0  0  0  0  0  0  0  0  0  0  0
    0.0000    0.0000    0.0000 C   0  0  0  0  0  0  0  0  0  0  0  0
    0.0000    0.0000    0.0000 C   0  0  0  0  0  0  0  0  0  0  0  0
    0.0000    0.0000    0.0000 C   0  0  0  0  0  0  0  0  0  0  0  0
    0.0000    0.0000    0.0000 C   0  0  0  0  0  0  0  0  0  0  0  0
    0.0000    0.0000    0.0000 C   0  0  0  0  0  0  0  0  0  0  0  0
    0.0000    0.0000    0.0000 C   0  0  0  0  0  0  0  0  0  0  0  0
    0.0000    0.0000    0.0000 O   0  0  0  0  0  0  0  0  0  0  0  0
    0.0000    0.0000    0.0000 C   0  0  0  0  0  0  0  0  0  0  0  0
  1  2  1  0
  2  3  1  0
  3  4  1  0
  4  5  1  0
  5  6  1  0
  6  7  1  0
  7  8  2  0
  8  9  1  0
  9 10  2  0
 10 11  1  0
 11 12  2  0
  4 13  1  0
 13 14  1  0
 14 15  1  0
 15 16  1  0
 15 17  1  0
 17 18  2  0
 18 19  1  0
 19 20  2  0
 20 21  1  0
 21 22  1  0
 21 23  2  0
 15  2  1  0
 12  7  1  0
 23 17  1  0
M  END
>  <pIC50>  (174) 
8.83

>  <ChEMBL_ID>  (174) 
CHEMBL319536

>  <document_journal>  (174) 
Bioorg. Med. Chem. Lett.

>  <bao_endpoint>  (174) 
BAO_0000190

>  <potential_duplicate>  (174) 
False

>  <uo_units>  (174) 
UO_0000065

>  <canonical_smiles>  (174) 
C[C@H]1CN(CCc2ccccc2)CC[C@@]1(C)c3cccc(O)c3

>  <parent_molecule_chembl_id>  (174) 
CHEMBL319536

>  <assay_type>  (174) 
F

>  <src_id>  (174) 
1

>  <ligand_efficiency>  (174) 
None

>  <standard_flag>  (174) 
True

>  <molecule_chembl_id>  (174) 
CHEMBL319536

>  <target_organism>  (174) 
Homo sapiens

>  <standard_units>  (174) 
nM

>  <record_id>  (174) 
268045

>  <document_chembl_id>  (174) 
CHEMBL1136497

>  <bao_format>  (174) 
BAO_0000019

>  <data_validity_description>  (174) 
None

>  <activity_id>  (174) 
902259

>  <standard_type>  (174) 
IC50

>  <target_chembl_id>  (174) 
CHEMBL233

>  <data_validity_comment>  (174) 
None

>  <published_value>  (174) 
2

>  <document_year>  (174) 
2003

>  <target_pref_name>  (174) 
Mu opioid receptor

>  <assay_chembl_id>  (174) 
CHEMBL754686

>  <standard_relation>  (174) 
=

>  <assay_description>  (174) 
Concentration required to inhibit agonist (loperamide) stimulated [35S]GTP-gamma-S, binding to membranes containing the cloned human mu opioid receptor

>  <published_relation>  (174) 
=

>  <standard_value>  (174) 
2

>  <qudt_units>  (174) 
http://www.openphacts.org/units/Nanomolar

>  <target_tax_id>  (174) 
9606

>  <bao_label>  (174) 
assay format

>  <published_units>  (174) 
nM

>  <pchembl_value>  (174) 
8.7

>  <published_type>  (174) 
IC50

>  <activity_comment>  (174) 
None

$$$$

     RDKit          

 30 33  0  0  0  0  0  0  0  0999 V2000
    0.0000    0.0000    0.0000 C   0  0  0  0  0  0  0  0  0  0  0  0
    0.0000    0.0000    0.0000 C   0  0  0  0  0  0  0  0  0  0  0  0
    0.0000    0.0000    0.0000 N   0  0  0  0  0  0  0  0  0  0  0  0
    0.0000    0.0000    0.0000 C   0  0  0  0  0  0  0  0  0  0  0  0
    0.0000    0.0000    0.0000 C   0  0  0  0  0  0  0  0  0  0  0  0
    0.0000    0.0000    0.0000 C   0  0  0  0  0  0  0  0  0  0  0  0
    0.0000    0.0000    0.0000 O   0  0  0  0  0  0  0  0  0  0  0  0
    0.0000    0.0000    0.0000 C   0  0  0  0  0  0  0  0  0  0  0  0
    0.0000    0.0000    0.0000 C   0  0  0  0  0  0  0  0  0  0  0  0
    0.0000    0.0000    0.0000 C   0  0  0  0  0  0  0  0  0  0  0  0
    0.0000    0.0000    0.0000 C   0  0  0  0  0  0  0  0  0  0  0  0
    0.0000    0.0000    0.0000 C   0  0  0  0  0  0  0  0  0  0  0  0
    0.0000    0.0000    0.0000 C   0  0  0  0  0  0  0  0  0  0  0  0
    0.0000    0.0000    0.0000 C   0  0  0  0  0  0  0  0  0  0  0  0
    0.0000    0.0000    0.0000 N   0  0  0  0  0  0  0  0  0  0  0  0
    0.0000    0.0000    0.0000 C   0  0  0  0  0  0  0  0  0  0  0  0
    0.0000    0.0000    0.0000 C   0  0  0  0  0  0  0  0  0  0  0  0
    0.0000    0.0000    0.0000 N   0  0  0  0  0  0  0  0  0  0  0  0
    0.0000    0.0000    0.0000 C   0  0  0  0  0  0  0  0  0  0  0  0
    0.0000    0.0000    0.0000 C   0  0  0  0  0  0  0  0  0  0  0  0
    0.0000    0.0000    0.0000 C   0  0  0  0  0  0  0  0  0  0  0  0
    0.0000    0.0000    0.0000 C   0  0  0  0  0  0  0  0  0  0  0  0
    0.0000    0.0000    0.0000 C   0  0  0  0  0  0  0  0  0  0  0  0
    0.0000    0.0000    0.0000 C   0  0  0  0  0  0  0  0  0  0  0  0
    0.0000    0.0000    0.0000 C   0  0  0  0  0  0  0  0  0  0  0  0
    0.0000    0.0000    0.0000 C   0  0  0  0  0  0  0  0  0  0  0  0
    0.0000    0.0000    0.0000 N   0  0  0  0  0  0  0  0  0  0  0  0
    0.0000    0.0000    0.0000 C   0  0  0  0  0  0  0  0  0  0  0  0
    0.0000    0.0000    0.0000 C   0  0  0  0  0  0  0  0  0  0  0  0
    0.0000    0.0000    0.0000 C   0  0  0  0  0  0  0  0  0  0  0  0
  1  2  1  0
  2  3  1  0
  3  4  1  0
  4  5  1  0
  3  6  1  0
  6  7  2  0
  6  8  1  0
  8  9  2  0
  9 10  1  0
 10 11  2  0
 11 12  1  0
 12 13  2  0
 11 14  1  0
 14 15  1  0
 15 16  1  0
 16 17  1  0
 17 18  1  0
 18 19  1  0
 19 20  1  0
 14 21  1  0
 21 22  2  0
 22 23  1  0
 23 24  2  0
 24 25  1  0
 25 26  2  0
 26 27  1  0
 27 28  2  0
 28 29  1  0
 29 30  2  0
 13  8  1  0
 20 15  1  0
 30 21  1  0
 30 25  1  0
M  END
>  <pIC50>  (175) 
5.83

>  <ChEMBL_ID>  (175) 
CHEMBL126366

>  <document_journal>  (175) 
J. Med. Chem.

>  <bao_endpoint>  (175) 
BAO_0000190

>  <potential_duplicate>  (175) 
False

>  <uo_units>  (175) 
UO_0000065

>  <canonical_smiles>  (175) 
CCN(CC)C(=O)c1ccc(cc1)C(N2CCNCC2)c3cccc4cnccc34

>  <parent_molecule_chembl_id>  (175) 
CHEMBL126366

>  <assay_type>  (175) 
B

>  <src_id>  (175) 
1

>  <ligand_efficiency>  (175) 
{u'le': u'0.27', u'bei': u'14.48', u'sei': u'12.03', u'lle': u'3.02'}

>  <standard_flag>  (175) 
True

>  <molecule_chembl_id>  (175) 
CHEMBL126366

>  <target_organism>  (175) 
Homo sapiens

>  <standard_units>  (175) 
nM

>  <record_id>  (175) 
242535

>  <document_chembl_id>  (175) 
CHEMBL1133468

>  <bao_format>  (175) 
BAO_0000357

>  <data_validity_description>  (175) 
None

>  <activity_id>  (175) 
902664

>  <standard_type>  (175) 
IC50

>  <target_chembl_id>  (175) 
CHEMBL233

>  <data_validity_comment>  (175) 
None

>  <published_value>  (175) 
1477

>  <document_year>  (175) 
2000

>  <target_pref_name>  (175) 
Mu opioid receptor

>  <assay_chembl_id>  (175) 
CHEMBL749744

>  <standard_relation>  (175) 
=

>  <assay_description>  (175) 
Binding affinity against cloned human Opioid receptor mu 1 using [125I]FK33824 as radioligand

>  <published_relation>  (175) 
=

>  <standard_value>  (175) 
1477

>  <qudt_units>  (175) 
http://www.openphacts.org/units/Nanomolar

>  <target_tax_id>  (175) 
9606

>  <bao_label>  (175) 
single protein format

>  <published_units>  (175) 
nM

>  <pchembl_value>  (175) 
5.83

>  <published_type>  (175) 
IC50

>  <activity_comment>  (175) 
None

$$$$

     RDKit          

 26 28  0  0  0  0  0  0  0  0999 V2000
    0.0000    0.0000    0.0000 C   0  0  0  0  0  0  0  0  0  0  0  0
    0.0000    0.0000    0.0000 C   0  0  0  0  0  0  0  0  0  0  0  0
    0.0000    0.0000    0.0000 C   0  0  0  0  0  0  0  0  0  0  0  0
    0.0000    0.0000    0.0000 N   0  0  0  0  0  0  0  0  0  0  0  0
    0.0000    0.0000    0.0000 C   0  0  0  0  0  0  0  0  0  0  0  0
    0.0000    0.0000    0.0000 C   0  0  0  0  0  0  0  0  0  0  0  0
    0.0000    0.0000    0.0000 C   0  0  0  0  0  0  0  0  0  0  0  0
    0.0000    0.0000    0.0000 C   0  0  0  0  0  0  0  0  0  0  0  0
    0.0000    0.0000    0.0000 C   0  0  0  0  0  0  0  0  0  0  0  0
    0.0000    0.0000    0.0000 C   0  0  0  0  0  0  0  0  0  0  0  0
    0.0000    0.0000    0.0000 C   0  0  0  0  0  0  0  0  0  0  0  0
    0.0000    0.0000    0.0000 C   0  0  0  0  0  0  0  0  0  0  0  0
    0.0000    0.0000    0.0000 C   0  0  0  0  0  0  0  0  0  0  0  0
    0.0000    0.0000    0.0000 C   0  0  0  0  0  0  0  0  0  0  0  0
    0.0000    0.0000    0.0000 C   0  0  0  0  0  0  0  0  0  0  0  0
    0.0000    0.0000    0.0000 C   0  0  0  0  0  0  0  0  0  0  0  0
    0.0000    0.0000    0.0000 C   0  0  0  0  0  0  0  0  0  0  0  0
    0.0000    0.0000    0.0000 C   0  0  0  0  0  0  0  0  0  0  0  0
    0.0000    0.0000    0.0000 C   0  0  0  0  0  0  0  0  0  0  0  0
    0.0000    0.0000    0.0000 C   0  0  0  0  0  0  0  0  0  0  0  0
    0.0000    0.0000    0.0000 C   0  0  0  0  0  0  0  0  0  0  0  0
    0.0000    0.0000    0.0000 N   0  0  0  0  0  0  0  0  0  0  0  0
    0.0000    0.0000    0.0000 C   0  0  0  0  0  0  0  0  0  0  0  0
    0.0000    0.0000    0.0000 O   0  0  0  0  0  0  0  0  0  0  0  0
    0.0000    0.0000    0.0000 C   0  0  0  0  0  0  0  0  0  0  0  0
    0.0000    0.0000    0.0000 C   0  0  0  0  0  0  0  0  0  0  0  0
  1  2  1  0
  2  3  1  0
  3  4  1  0
  4  5  1  0
  5  6  1  0
  6  7  1  0
  7  8  2  0
  8  9  1  0
  9 10  2  0
 10 11  1  0
 11 12  2  0
  4 13  1  0
 13 14  1  0
 14 15  1  0
 15 16  1  0
 15 17  1  0
 17 18  2  0
 18 19  1  0
 19 20  2  0
 20 21  1  0
 21 22  1  0
 22 23  1  0
 23 24  2  0
 23 25  1  0
 21 26  2  0
 15  2  1  0
 12  7  1  0
 26 17  1  0
M  END
>  <pIC50>  (176) 
7.8

>  <ChEMBL_ID>  (176) 
CHEMBL138750

>  <document_journal>  (176) 
Bioorg. Med. Chem. Lett.

>  <bao_endpoint>  (176) 
BAO_0000190

>  <potential_duplicate>  (176) 
False

>  <uo_units>  (176) 
UO_0000065

>  <canonical_smiles>  (176) 
C[C@H]1CN(CCc2ccccc2)CC[C@@]1(C)c3cccc(NC(=O)C)c3

>  <parent_molecule_chembl_id>  (176) 
CHEMBL138750

>  <assay_type>  (176) 
F

>  <src_id>  (176) 
1

>  <ligand_efficiency>  (176) 
None

>  <standard_flag>  (176) 
True

>  <molecule_chembl_id>  (176) 
CHEMBL138750

>  <target_organism>  (176) 
Homo sapiens

>  <standard_units>  (176) 
nM

>  <record_id>  (176) 
268040

>  <document_chembl_id>  (176) 
CHEMBL1136497

>  <bao_format>  (176) 
BAO_0000019

>  <data_validity_description>  (176) 
None

>  <activity_id>  (176) 
903514

>  <standard_type>  (176) 
IC50

>  <target_chembl_id>  (176) 
CHEMBL233

>  <data_validity_comment>  (176) 
None

>  <published_value>  (176) 
16

>  <document_year>  (176) 
2003

>  <target_pref_name>  (176) 
Mu opioid receptor

>  <assay_chembl_id>  (176) 
CHEMBL754686

>  <standard_relation>  (176) 
=

>  <assay_description>  (176) 
Concentration required to inhibit agonist (loperamide) stimulated [35S]GTP-gamma-S, binding to membranes containing the cloned human mu opioid receptor

>  <published_relation>  (176) 
=

>  <standard_value>  (176) 
16

>  <qudt_units>  (176) 
http://www.openphacts.org/units/Nanomolar

>  <target_tax_id>  (176) 
9606

>  <bao_label>  (176) 
assay format

>  <published_units>  (176) 
nM

>  <pchembl_value>  (176) 
7.8

>  <published_type>  (176) 
IC50

>  <activity_comment>  (176) 
None

$$$$

     RDKit          

 30 33  0  0  0  0  0  0  0  0999 V2000
    0.0000    0.0000    0.0000 C   0  0  0  0  0  0  0  0  0  0  0  0
    0.0000    0.0000    0.0000 C   0  0  0  0  0  0  0  0  0  0  0  0
    0.0000    0.0000    0.0000 N   0  0  0  0  0  0  0  0  0  0  0  0
    0.0000    0.0000    0.0000 C   0  0  0  0  0  0  0  0  0  0  0  0
    0.0000    0.0000    0.0000 C   0  0  0  0  0  0  0  0  0  0  0  0
    0.0000    0.0000    0.0000 C   0  0  0  0  0  0  0  0  0  0  0  0
    0.0000    0.0000    0.0000 O   0  0  0  0  0  0  0  0  0  0  0  0
    0.0000    0.0000    0.0000 C   0  0  0  0  0  0  0  0  0  0  0  0
    0.0000    0.0000    0.0000 C   0  0  0  0  0  0  0  0  0  0  0  0
    0.0000    0.0000    0.0000 C   0  0  0  0  0  0  0  0  0  0  0  0
    0.0000    0.0000    0.0000 C   0  0  0  0  0  0  0  0  0  0  0  0
    0.0000    0.0000    0.0000 C   0  0  0  0  0  0  0  0  0  0  0  0
    0.0000    0.0000    0.0000 C   0  0  0  0  0  0  0  0  0  0  0  0
    0.0000    0.0000    0.0000 C   0  0  0  0  0  0  0  0  0  0  0  0
    0.0000    0.0000    0.0000 N   0  0  0  0  0  0  0  0  0  0  0  0
    0.0000    0.0000    0.0000 C   0  0  0  0  0  0  0  0  0  0  0  0
    0.0000    0.0000    0.0000 C   0  0  0  0  0  0  0  0  0  0  0  0
    0.0000    0.0000    0.0000 N   0  0  0  0  0  0  0  0  0  0  0  0
    0.0000    0.0000    0.0000 C   0  0  0  0  0  0  0  0  0  0  0  0
    0.0000    0.0000    0.0000 C   0  0  0  0  0  0  0  0  0  0  0  0
    0.0000    0.0000    0.0000 C   0  0  0  0  0  0  0  0  0  0  0  0
    0.0000    0.0000    0.0000 C   0  0  0  0  0  0  0  0  0  0  0  0
    0.0000    0.0000    0.0000 C   0  0  0  0  0  0  0  0  0  0  0  0
    0.0000    0.0000    0.0000 C   0  0  0  0  0  0  0  0  0  0  0  0
    0.0000    0.0000    0.0000 C   0  0  0  0  0  0  0  0  0  0  0  0
    0.0000    0.0000    0.0000 C   0  0  0  0  0  0  0  0  0  0  0  0
    0.0000    0.0000    0.0000 C   0  0  0  0  0  0  0  0  0  0  0  0
    0.0000    0.0000    0.0000 C   0  0  0  0  0  0  0  0  0  0  0  0
    0.0000    0.0000    0.0000 C   0  0  0  0  0  0  0  0  0  0  0  0
    0.0000    0.0000    0.0000 C   0  0  0  0  0  0  0  0  0  0  0  0
  1  2  1  0
  2  3  1  0
  3  4  1  0
  4  5  1  0
  3  6  1  0
  6  7  2  0
  6  8  1  0
  8  9  2  0
  9 10  1  0
 10 11  2  0
 11 12  1  0
 12 13  2  0
 11 14  1  0
 14 15  1  0
 15 16  1  0
 16 17  1  0
 17 18  1  0
 18 19  1  0
 19 20  1  0
 20 21  1  0
 21 22  1  0
 18 23  1  0
 23 24  1  0
 14 25  1  0
 25 26  2  0
 26 27  1  0
 27 28  2  0
 28 29  1  0
 29 30  2  0
 13  8  1  0
 24 15  1  0
 22 20  1  0
 30 25  1  0
M  END
>  <pIC50>  (177) 
5.62

>  <ChEMBL_ID>  (177) 
CHEMBL125248

>  <document_journal>  (177) 
J. Med. Chem.

>  <bao_endpoint>  (177) 
BAO_0000190

>  <potential_duplicate>  (177) 
False

>  <uo_units>  (177) 
UO_0000065

>  <canonical_smiles>  (177) 
CCN(CC)C(=O)c1ccc(cc1)C(N2CCN(CC3CC3)CC2)c4ccccc4

>  <parent_molecule_chembl_id>  (177) 
CHEMBL125248

>  <assay_type>  (177) 
B

>  <src_id>  (177) 
1

>  <ligand_efficiency>  (177) 
{u'le': u'0.26', u'bei': u'13.86', u'sei': u'20.98', u'lle': u'1.22'}

>  <standard_flag>  (177) 
True

>  <molecule_chembl_id>  (177) 
CHEMBL125248

>  <target_organism>  (177) 
Homo sapiens

>  <standard_units>  (177) 
nM

>  <record_id>  (177) 
242548

>  <document_chembl_id>  (177) 
CHEMBL1133468

>  <bao_format>  (177) 
BAO_0000357

>  <data_validity_description>  (177) 
None

>  <activity_id>  (177) 
903833

>  <standard_type>  (177) 
IC50

>  <target_chembl_id>  (177) 
CHEMBL233

>  <data_validity_comment>  (177) 
None

>  <published_value>  (177) 
2398

>  <document_year>  (177) 
2000

>  <target_pref_name>  (177) 
Mu opioid receptor

>  <assay_chembl_id>  (177) 
CHEMBL749744

>  <standard_relation>  (177) 
=

>  <assay_description>  (177) 
Binding affinity against cloned human Opioid receptor mu 1 using [125I]FK33824 as radioligand

>  <published_relation>  (177) 
=

>  <standard_value>  (177) 
2398

>  <qudt_units>  (177) 
http://www.openphacts.org/units/Nanomolar

>  <target_tax_id>  (177) 
9606

>  <bao_label>  (177) 
single protein format

>  <published_units>  (177) 
nM

>  <pchembl_value>  (177) 
5.62

>  <published_type>  (177) 
IC50

>  <activity_comment>  (177) 
None

$$$$

     RDKit          

 31 34  0  0  0  0  0  0  0  0999 V2000
    0.0000    0.0000    0.0000 C   0  0  0  0  0  0  0  0  0  0  0  0
    0.0000    0.0000    0.0000 O   0  0  0  0  0  0  0  0  0  0  0  0
    0.0000    0.0000    0.0000 C   0  0  0  0  0  0  0  0  0  0  0  0
    0.0000    0.0000    0.0000 C   0  0  0  0  0  0  0  0  0  0  0  0
    0.0000    0.0000    0.0000 C   0  0  0  0  0  0  0  0  0  0  0  0
    0.0000    0.0000    0.0000 C   0  0  0  0  0  0  0  0  0  0  0  0
    0.0000    0.0000    0.0000 C   0  0  0  0  0  0  0  0  0  0  0  0
    0.0000    0.0000    0.0000 O   0  0  0  0  0  0  0  0  0  0  0  0
    0.0000    0.0000    0.0000 C   0  0  0  0  0  0  0  0  0  0  0  0
    0.0000    0.0000    0.0000 C   0  0  0  0  0  0  0  0  0  0  0  0
    0.0000    0.0000    0.0000 C   0  0  0  0  0  0  0  0  0  0  0  0
    0.0000    0.0000    0.0000 C   0  0  0  0  0  0  0  0  0  0  0  0
    0.0000    0.0000    0.0000 C   0  0  0  0  0  0  0  0  0  0  0  0
    0.0000    0.0000    0.0000 C   0  0  0  0  0  0  0  0  0  0  0  0
    0.0000    0.0000    0.0000 N   0  0  0  0  0  0  0  0  0  0  0  0
    0.0000    0.0000    0.0000 C   0  0  0  0  0  0  0  0  0  0  0  0
    0.0000    0.0000    0.0000 C   0  0  0  0  0  0  0  0  0  0  0  0
    0.0000    0.0000    0.0000 N   0  0  0  0  0  0  0  0  0  0  0  0
    0.0000    0.0000    0.0000 C   0  0  0  0  0  0  0  0  0  0  0  0
    0.0000    0.0000    0.0000 C   0  0  0  0  0  0  0  0  0  0  0  0
    0.0000    0.0000    0.0000 C   0  0  0  0  0  0  0  0  0  0  0  0
    0.0000    0.0000    0.0000 O   0  0  0  0  0  0  0  0  0  0  0  0
    0.0000    0.0000    0.0000 C   0  0  0  0  0  0  0  0  0  0  0  0
    0.0000    0.0000    0.0000 C   0  0  0  0  0  0  0  0  0  0  0  0
    0.0000    0.0000    0.0000 C   0  0  0  0  0  0  0  0  0  0  0  0
    0.0000    0.0000    0.0000 C   0  0  0  0  0  0  0  0  0  0  0  0
    0.0000    0.0000    0.0000 C   0  0  0  0  0  0  0  0  0  0  0  0
    0.0000    0.0000    0.0000 C   0  0  0  0  0  0  0  0  0  0  0  0
    0.0000    0.0000    0.0000 C   0  0  0  0  0  0  0  0  0  0  0  0
    0.0000    0.0000    0.0000 C   0  0  0  0  0  0  0  0  0  0  0  0
    0.0000    0.0000    0.0000 O   0  0  0  0  0  0  0  0  0  0  0  0
  1  2  1  0
  2  3  1  0
  3  4  2  0
  4  5  1  0
  5  6  2  0
  6  7  1  0
  7  8  1  0
  8  9  1  0
  7 10  2  0
 10 11  1  0
 11 12  2  0
 12 13  1  0
 13 14  2  0
 14 15  1  0
 15 16  1  0
 16 17  1  0
 17 18  1  0
 18 19  1  0
 19 20  1  0
 20 21  1  0
 21 22  1  0
 21 23  1  0
 16 24  1  0
 24 25  2  0
 25 26  1  0
 26 27  2  0
 27 28  1  0
 28 29  2  0
 15 30  1  0
 30 31  2  0
 10  3  1  0
 30 11  1  0
 23 18  1  0
 29 24  1  0
M  END
>  <pIC50>  (178) 
5.41

>  <ChEMBL_ID>  (178) 
CHEMBL417260

>  <document_journal>  (178) 
Bioorg. Med. Chem. Lett.

>  <bao_endpoint>  (178) 
BAO_0000190

>  <potential_duplicate>  (178) 
False

>  <uo_units>  (178) 
UO_0000065

>  <canonical_smiles>  (178) 
COc1cccc(OC)c1C2=CC=CN(C(CN3CCC(O)C3)c4ccccc4)C2=O

>  <parent_molecule_chembl_id>  (178) 
CHEMBL417260

>  <assay_type>  (178) 
B

>  <src_id>  (178) 
1

>  <ligand_efficiency>  (178) 
{u'le': u'0.24', u'bei': u'12.86', u'sei': u'8.69', u'lle': u'2.96'}

>  <standard_flag>  (178) 
True

>  <molecule_chembl_id>  (178) 
CHEMBL417260

>  <target_organism>  (178) 
Homo sapiens

>  <standard_units>  (178) 
nM

>  <record_id>  (178) 
15945

>  <document_chembl_id>  (178) 
CHEMBL1136656

>  <bao_format>  (178) 
BAO_0000219

>  <data_validity_description>  (178) 
None

>  <activity_id>  (178) 
907515

>  <standard_type>  (178) 
IC50

>  <target_chembl_id>  (178) 
CHEMBL233

>  <data_validity_comment>  (178) 
None

>  <published_value>  (178) 
3910

>  <document_year>  (178) 
2003

>  <target_pref_name>  (178) 
Mu opioid receptor

>  <assay_chembl_id>  (178) 
CHEMBL754565

>  <standard_relation>  (178) 
=

>  <assay_description>  (178) 
Inhibition of [125I]Enkephalin binding to human mu opioid receptor from membranes of HEK293 cells

>  <published_relation>  (178) 
=

>  <standard_value>  (178) 
3910

>  <qudt_units>  (178) 
http://www.openphacts.org/units/Nanomolar

>  <target_tax_id>  (178) 
9606

>  <bao_label>  (178) 
cell-based format

>  <published_units>  (178) 
nM

>  <pchembl_value>  (178) 
5.41

>  <published_type>  (178) 
IC50

>  <activity_comment>  (178) 
None

$$$$

     RDKit          

 31 34  0  0  0  0  0  0  0  0999 V2000
    0.0000    0.0000    0.0000 F   0  0  0  0  0  0  0  0  0  0  0  0
    0.0000    0.0000    0.0000 C   0  0  0  0  0  0  0  0  0  0  0  0
    0.0000    0.0000    0.0000 F   0  0  0  0  0  0  0  0  0  0  0  0
    0.0000    0.0000    0.0000 F   0  0  0  0  0  0  0  0  0  0  0  0
    0.0000    0.0000    0.0000 C   0  0  0  0  0  0  0  0  0  0  0  0
    0.0000    0.0000    0.0000 C   0  0  0  0  0  0  0  0  0  0  0  0
    0.0000    0.0000    0.0000 C   0  0  0  0  0  0  0  0  0  0  0  0
    0.0000    0.0000    0.0000 C   0  0  0  0  0  0  0  0  0  0  0  0
    0.0000    0.0000    0.0000 N   0  0  0  0  0  0  0  0  0  0  0  0
    0.0000    0.0000    0.0000 C   0  0  0  0  0  0  0  0  0  0  0  0
    0.0000    0.0000    0.0000 C   0  0  0  0  0  0  0  0  0  0  0  0
    0.0000    0.0000    0.0000 C   0  0  0  0  0  0  0  0  0  0  0  0
    0.0000    0.0000    0.0000 C   0  0  0  0  0  0  0  0  0  0  0  0
    0.0000    0.0000    0.0000 N   0  0  0  0  0  0  0  0  0  0  0  0
    0.0000    0.0000    0.0000 C   0  0  0  0  0  0  0  0  0  0  0  0
    0.0000    0.0000    0.0000 C   0  0  0  0  0  0  0  0  0  0  0  0
    0.0000    0.0000    0.0000 N   0  0  0  0  0  0  0  0  0  0  0  0
    0.0000    0.0000    0.0000 C   0  0  0  0  0  0  0  0  0  0  0  0
    0.0000    0.0000    0.0000 C   0  0  0  0  0  0  0  0  0  0  0  0
    0.0000    0.0000    0.0000 C   0  0  0  0  0  0  0  0  0  0  0  0
    0.0000    0.0000    0.0000 C   0  0  0  0  0  0  0  0  0  0  0  0
    0.0000    0.0000    0.0000 C   0  0  0  0  0  0  0  0  0  0  0  0
    0.0000    0.0000    0.0000 C   0  0  0  0  0  0  0  0  0  0  0  0
    0.0000    0.0000    0.0000 C   0  0  0  0  0  0  0  0  0  0  0  0
    0.0000    0.0000    0.0000 C   0  0  0  0  0  0  0  0  0  0  0  0
    0.0000    0.0000    0.0000 C   0  0  0  0  0  0  0  0  0  0  0  0
    0.0000    0.0000    0.0000 C   0  0  0  0  0  0  0  0  0  0  0  0
    0.0000    0.0000    0.0000 C   0  0  0  0  0  0  0  0  0  0  0  0
    0.0000    0.0000    0.0000 O   0  0  0  0  0  0  0  0  0  0  0  0
    0.0000    0.0000    0.0000 C   0  0  0  0  0  0  0  0  0  0  0  0
    0.0000    0.0000    0.0000 C   0  0  0  0  0  0  0  0  0  0  0  0
  1  2  1  0
  2  3  1  0
  2  4  1  0
  2  5  1  0
  5  6  2  0
  6  7  1  0
  7  8  2  0
  8  9  1  0
  9 10  1  0
 10 11  2  0
 11 12  1  0
 12 13  2  0
 13 14  1  0
 14 15  1  0
 15 16  1  0
 16 17  1  0
 17 18  1  0
 18 19  1  0
 19 20  1  0
 20 21  1  0
 15 22  1  0
 22 23  2  0
 23 24  1  0
 24 25  2  0
 25 26  1  0
 26 27  2  0
 14 28  1  0
 28 29  2  0
  8 30  1  0
 30 31  2  0
 31  5  1  0
 28 10  1  0
 21 17  1  0
 27 22  1  0
M  END
>  <pIC50>  (179) 
5.0

>  <ChEMBL_ID>  (179) 
CHEMBL15264

>  <document_journal>  (179) 
Bioorg. Med. Chem. Lett.

>  <bao_endpoint>  (179) 
BAO_0000190

>  <potential_duplicate>  (179) 
False

>  <uo_units>  (179) 
UO_0000065

>  <canonical_smiles>  (179) 
FC(F)(F)c1ccc(NC2=CC=CN(C(CN3CCCC3)c4ccccc4)C2=O)cc1

>  <parent_molecule_chembl_id>  (179) 
CHEMBL15264

>  <assay_type>  (179) 
B

>  <src_id>  (179) 
1

>  <ligand_efficiency>  (179) 
{u'le': u'0.22', u'bei': u'11.7', u'sei': u'14.05', u'lle': u'0.87'}

>  <standard_flag>  (179) 
True

>  <molecule_chembl_id>  (179) 
CHEMBL15264

>  <target_organism>  (179) 
Homo sapiens

>  <standard_units>  (179) 
nM

>  <record_id>  (179) 
15934

>  <document_chembl_id>  (179) 
CHEMBL1136656

>  <bao_format>  (179) 
BAO_0000219

>  <data_validity_description>  (179) 
None

>  <activity_id>  (179) 
913982

>  <standard_type>  (179) 
IC50

>  <target_chembl_id>  (179) 
CHEMBL233

>  <data_validity_comment>  (179) 
None

>  <published_value>  (179) 
10000

>  <document_year>  (179) 
2003

>  <target_pref_name>  (179) 
Mu opioid receptor

>  <assay_chembl_id>  (179) 
CHEMBL754565

>  <standard_relation>  (179) 
=

>  <assay_description>  (179) 
Inhibition of [125I]Enkephalin binding to human mu opioid receptor from membranes of HEK293 cells

>  <published_relation>  (179) 
=

>  <standard_value>  (179) 
10000

>  <qudt_units>  (179) 
http://www.openphacts.org/units/Nanomolar

>  <target_tax_id>  (179) 
9606

>  <bao_label>  (179) 
cell-based format

>  <published_units>  (179) 
nM

>  <pchembl_value>  (179) 
5

>  <published_type>  (179) 
IC50

>  <activity_comment>  (179) 
None

$$$$

     RDKit          

 30 33  0  0  0  0  0  0  0  0999 V2000
    0.0000    0.0000    0.0000 C   0  0  0  0  0  0  0  0  0  0  0  0
    0.0000    0.0000    0.0000 O   0  0  0  0  0  0  0  0  0  0  0  0
    0.0000    0.0000    0.0000 C   0  0  0  0  0  0  0  0  0  0  0  0
    0.0000    0.0000    0.0000 C   0  0  0  0  0  0  0  0  0  0  0  0
    0.0000    0.0000    0.0000 C   0  0  0  0  0  0  0  0  0  0  0  0
    0.0000    0.0000    0.0000 C   0  0  0  0  0  0  0  0  0  0  0  0
    0.0000    0.0000    0.0000 Cl  0  0  0  0  0  0  0  0  0  0  0  0
    0.0000    0.0000    0.0000 C   0  0  0  0  0  0  0  0  0  0  0  0
    0.0000    0.0000    0.0000 C   0  0  0  0  0  0  0  0  0  0  0  0
    0.0000    0.0000    0.0000 C   0  0  0  0  0  0  0  0  0  0  0  0
    0.0000    0.0000    0.0000 C   0  0  0  0  0  0  0  0  0  0  0  0
    0.0000    0.0000    0.0000 C   0  0  0  0  0  0  0  0  0  0  0  0
    0.0000    0.0000    0.0000 C   0  0  0  0  0  0  0  0  0  0  0  0
    0.0000    0.0000    0.0000 N   0  0  0  0  0  0  0  0  0  0  0  0
    0.0000    0.0000    0.0000 C   0  0  0  0  0  0  0  0  0  0  0  0
    0.0000    0.0000    0.0000 C   0  0  0  0  0  0  0  0  0  0  0  0
    0.0000    0.0000    0.0000 N   0  0  0  0  0  0  0  0  0  0  0  0
    0.0000    0.0000    0.0000 C   0  0  0  0  0  0  0  0  0  0  0  0
    0.0000    0.0000    0.0000 C   0  0  0  0  0  0  0  0  0  0  0  0
    0.0000    0.0000    0.0000 C   0  0  0  0  0  0  0  0  0  0  0  0
    0.0000    0.0000    0.0000 O   0  0  0  0  0  0  0  0  0  0  0  0
    0.0000    0.0000    0.0000 C   0  0  0  0  0  0  0  0  0  0  0  0
    0.0000    0.0000    0.0000 C   0  0  0  0  0  0  0  0  0  0  0  0
    0.0000    0.0000    0.0000 C   0  0  0  0  0  0  0  0  0  0  0  0
    0.0000    0.0000    0.0000 C   0  0  0  0  0  0  0  0  0  0  0  0
    0.0000    0.0000    0.0000 C   0  0  0  0  0  0  0  0  0  0  0  0
    0.0000    0.0000    0.0000 C   0  0  0  0  0  0  0  0  0  0  0  0
    0.0000    0.0000    0.0000 C   0  0  0  0  0  0  0  0  0  0  0  0
    0.0000    0.0000    0.0000 C   0  0  0  0  0  0  0  0  0  0  0  0
    0.0000    0.0000    0.0000 O   0  0  0  0  0  0  0  0  0  0  0  0
  1  2  1  0
  2  3  1  0
  3  4  2  0
  4  5  1  0
  5  6  2  0
  6  7  1  0
  6  8  1  0
  8  9  2  0
  9 10  1  0
 10 11  2  0
 11 12  1  0
 12 13  2  0
 13 14  1  0
 14 15  1  0
 15 16  1  0
 16 17  1  0
 17 18  1  0
 18 19  1  0
 19 20  1  0
 20 21  1  0
 20 22  1  0
 15 23  1  0
 23 24  2  0
 24 25  1  0
 25 26  2  0
 26 27  1  0
 27 28  2  0
 14 29  1  0
 29 30  2  0
  9  3  1  0
 29 10  1  0
 22 17  1  0
 28 23  1  0
M  END
>  <pIC50>  (180) 
6.72

>  <ChEMBL_ID>  (180) 
CHEMBL15428

>  <document_journal>  (180) 
Bioorg. Med. Chem. Lett.

>  <bao_endpoint>  (180) 
BAO_0000190

>  <potential_duplicate>  (180) 
False

>  <uo_units>  (180) 
UO_0000065

>  <canonical_smiles>  (180) 
COc1ccc(Cl)cc1C2=CC=CN(C(CN3CCC(O)C3)c4ccccc4)C2=O

>  <parent_molecule_chembl_id>  (180) 
CHEMBL15428

>  <assay_type>  (180) 
B

>  <src_id>  (180) 
1

>  <ligand_efficiency>  (180) 
{u'le': u'0.31', u'bei': u'15.82', u'sei': u'12.68', u'lle': u'3.59'}

>  <standard_flag>  (180) 
True

>  <molecule_chembl_id>  (180) 
CHEMBL15428

>  <target_organism>  (180) 
Homo sapiens

>  <standard_units>  (180) 
nM

>  <record_id>  (180) 
15947

>  <document_chembl_id>  (180) 
CHEMBL1136656

>  <bao_format>  (180) 
BAO_0000219

>  <data_validity_description>  (180) 
None

>  <activity_id>  (180) 
913985

>  <standard_type>  (180) 
IC50

>  <target_chembl_id>  (180) 
CHEMBL233

>  <data_validity_comment>  (180) 
None

>  <published_value>  (180) 
190

>  <document_year>  (180) 
2003

>  <target_pref_name>  (180) 
Mu opioid receptor

>  <assay_chembl_id>  (180) 
CHEMBL754565

>  <standard_relation>  (180) 
=

>  <assay_description>  (180) 
Inhibition of [125I]Enkephalin binding to human mu opioid receptor from membranes of HEK293 cells

>  <published_relation>  (180) 
=

>  <standard_value>  (180) 
190

>  <qudt_units>  (180) 
http://www.openphacts.org/units/Nanomolar

>  <target_tax_id>  (180) 
9606

>  <bao_label>  (180) 
cell-based format

>  <published_units>  (180) 
nM

>  <pchembl_value>  (180) 
6.72

>  <published_type>  (180) 
IC50

>  <activity_comment>  (180) 
None

$$$$

     RDKit          

 28 31  0  0  0  0  0  0  0  0999 V2000
    0.0000    0.0000    0.0000 Cl  0  0  0  0  0  0  0  0  0  0  0  0
    0.0000    0.0000    0.0000 C   0  0  0  0  0  0  0  0  0  0  0  0
    0.0000    0.0000    0.0000 C   0  0  0  0  0  0  0  0  0  0  0  0
    0.0000    0.0000    0.0000 C   0  0  0  0  0  0  0  0  0  0  0  0
    0.0000    0.0000    0.0000 C   0  0  0  0  0  0  0  0  0  0  0  0
    0.0000    0.0000    0.0000 C   0  0  0  0  0  0  0  0  0  0  0  0
    0.0000    0.0000    0.0000 C   0  0  0  0  0  0  0  0  0  0  0  0
    0.0000    0.0000    0.0000 N   0  0  0  0  0  0  0  0  0  0  0  0
    0.0000    0.0000    0.0000 C   0  0  0  0  0  0  0  0  0  0  0  0
    0.0000    0.0000    0.0000 N   0  0  0  0  0  0  0  0  0  0  0  0
    0.0000    0.0000    0.0000 C   0  0  0  0  0  0  0  0  0  0  0  0
    0.0000    0.0000    0.0000 C   0  0  0  0  0  0  0  0  0  0  0  0
    0.0000    0.0000    0.0000 N   0  0  0  0  0  0  0  0  0  0  0  0
    0.0000    0.0000    0.0000 C   0  0  0  0  0  0  0  0  0  0  0  0
    0.0000    0.0000    0.0000 C   0  0  0  0  0  0  0  0  0  0  0  0
    0.0000    0.0000    0.0000 C   0  0  0  0  0  0  0  0  0  0  0  0
    0.0000    0.0000    0.0000 C   0  0  0  0  0  0  0  0  0  0  0  0
    0.0000    0.0000    0.0000 C   0  0  0  0  0  0  0  0  0  0  0  0
    0.0000    0.0000    0.0000 C   0  0  0  0  0  0  0  0  0  0  0  0
    0.0000    0.0000    0.0000 C   0  0  0  0  0  0  0  0  0  0  0  0
    0.0000    0.0000    0.0000 C   0  0  0  0  0  0  0  0  0  0  0  0
    0.0000    0.0000    0.0000 C   0  0  0  0  0  0  0  0  0  0  0  0
    0.0000    0.0000    0.0000 C   0  0  0  0  0  0  0  0  0  0  0  0
    0.0000    0.0000    0.0000 C   0  0  0  0  0  0  0  0  0  0  0  0
    0.0000    0.0000    0.0000 O   0  0  0  0  0  0  0  0  0  0  0  0
    0.0000    0.0000    0.0000 C   0  0  0  0  0  0  0  0  0  0  0  0
    0.0000    0.0000    0.0000 Cl  0  0  0  0  0  0  0  0  0  0  0  0
    0.0000    0.0000    0.0000 C   0  0  0  0  0  0  0  0  0  0  0  0
  1  2  1  0
  2  3  2  0
  3  4  1  0
  4  5  2  0
  5  6  1  0
  6  7  2  0
  7  8  1  0
  8  9  2  0
  9 10  1  0
 10 11  1  0
 11 12  1  0
 12 13  1  0
 13 14  1  0
 14 15  1  0
 15 16  1  0
 16 17  1  0
 11 18  1  0
 18 19  2  0
 19 20  1  0
 20 21  2  0
 21 22  1  0
 22 23  2  0
 10 24  1  0
 24 25  2  0
  5 26  1  0
 26 27  1  0
 26 28  2  0
 28  2  1  0
 24  6  1  0
 17 13  1  0
 23 18  1  0
M  END
>  <pIC50>  (181) 
5.02

>  <ChEMBL_ID>  (181) 
CHEMBL15257

>  <document_journal>  (181) 
Bioorg. Med. Chem. Lett.

>  <bao_endpoint>  (181) 
BAO_0000190

>  <potential_duplicate>  (181) 
False

>  <uo_units>  (181) 
UO_0000065

>  <canonical_smiles>  (181) 
Clc1ccc(C2=CN=CN(C(CN3CCCC3)c4ccccc4)C2=O)c(Cl)c1

>  <parent_molecule_chembl_id>  (181) 
CHEMBL15257

>  <assay_type>  (181) 
B

>  <src_id>  (181) 
1

>  <ligand_efficiency>  (181) 
{u'le': u'0.24', u'bei': u'12.11', u'sei': u'13.98', u'lle': u'0.62'}

>  <standard_flag>  (181) 
True

>  <molecule_chembl_id>  (181) 
CHEMBL15257

>  <target_organism>  (181) 
Homo sapiens

>  <standard_units>  (181) 
nM

>  <record_id>  (181) 
15955

>  <document_chembl_id>  (181) 
CHEMBL1136656

>  <bao_format>  (181) 
BAO_0000219

>  <data_validity_description>  (181) 
None

>  <activity_id>  (181) 
916468

>  <standard_type>  (181) 
IC50

>  <target_chembl_id>  (181) 
CHEMBL233

>  <data_validity_comment>  (181) 
None

>  <published_value>  (181) 
9600

>  <document_year>  (181) 
2003

>  <target_pref_name>  (181) 
Mu opioid receptor

>  <assay_chembl_id>  (181) 
CHEMBL754565

>  <standard_relation>  (181) 
=

>  <assay_description>  (181) 
Inhibition of [125I]Enkephalin binding to human mu opioid receptor from membranes of HEK293 cells

>  <published_relation>  (181) 
=

>  <standard_value>  (181) 
9600

>  <qudt_units>  (181) 
http://www.openphacts.org/units/Nanomolar

>  <target_tax_id>  (181) 
9606

>  <bao_label>  (181) 
cell-based format

>  <published_units>  (181) 
nM

>  <pchembl_value>  (181) 
5.02

>  <published_type>  (181) 
IC50

>  <activity_comment>  (181) 
None

$$$$

     RDKit          

 31 34  0  0  0  0  0  0  0  0999 V2000
    0.0000    0.0000    0.0000 C   0  0  0  0  0  0  0  0  0  0  0  0
    0.0000    0.0000    0.0000 O   0  0  0  0  0  0  0  0  0  0  0  0
    0.0000    0.0000    0.0000 C   0  0  0  0  0  0  0  0  0  0  0  0
    0.0000    0.0000    0.0000 C   0  0  0  0  0  0  0  0  0  0  0  0
    0.0000    0.0000    0.0000 C   0  0  0  0  0  0  0  0  0  0  0  0
    0.0000    0.0000    0.0000 C   0  0  0  0  0  0  0  0  0  0  0  0
    0.0000    0.0000    0.0000 O   0  0  0  0  0  0  0  0  0  0  0  0
    0.0000    0.0000    0.0000 C   0  0  0  0  0  0  0  0  0  0  0  0
    0.0000    0.0000    0.0000 C   0  0  0  0  0  0  0  0  0  0  0  0
    0.0000    0.0000    0.0000 C   0  0  0  0  0  0  0  0  0  0  0  0
    0.0000    0.0000    0.0000 C   0  0  0  0  0  0  0  0  0  0  0  0
    0.0000    0.0000    0.0000 C   0  0  0  0  0  0  0  0  0  0  0  0
    0.0000    0.0000    0.0000 C   0  0  0  0  0  0  0  0  0  0  0  0
    0.0000    0.0000    0.0000 C   0  0  0  0  0  0  0  0  0  0  0  0
    0.0000    0.0000    0.0000 N   0  0  0  0  0  0  0  0  0  0  0  0
    0.0000    0.0000    0.0000 C   0  0  0  0  0  0  0  0  0  0  0  0
    0.0000    0.0000    0.0000 C   0  0  0  0  0  0  0  0  0  0  0  0
    0.0000    0.0000    0.0000 N   0  0  0  0  0  0  0  0  0  0  0  0
    0.0000    0.0000    0.0000 C   0  0  0  0  0  0  0  0  0  0  0  0
    0.0000    0.0000    0.0000 C   0  0  0  0  0  0  0  0  0  0  0  0
    0.0000    0.0000    0.0000 C   0  0  0  0  0  0  0  0  0  0  0  0
    0.0000    0.0000    0.0000 O   0  0  0  0  0  0  0  0  0  0  0  0
    0.0000    0.0000    0.0000 C   0  0  0  0  0  0  0  0  0  0  0  0
    0.0000    0.0000    0.0000 C   0  0  0  0  0  0  0  0  0  0  0  0
    0.0000    0.0000    0.0000 C   0  0  0  0  0  0  0  0  0  0  0  0
    0.0000    0.0000    0.0000 C   0  0  0  0  0  0  0  0  0  0  0  0
    0.0000    0.0000    0.0000 C   0  0  0  0  0  0  0  0  0  0  0  0
    0.0000    0.0000    0.0000 C   0  0  0  0  0  0  0  0  0  0  0  0
    0.0000    0.0000    0.0000 C   0  0  0  0  0  0  0  0  0  0  0  0
    0.0000    0.0000    0.0000 C   0  0  0  0  0  0  0  0  0  0  0  0
    0.0000    0.0000    0.0000 O   0  0  0  0  0  0  0  0  0  0  0  0
  1  2  1  0
  2  3  1  0
  3  4  2  0
  4  5  1  0
  5  6  2  0
  6  7  1  0
  7  8  1  0
  6  9  1  0
  9 10  2  0
  9 11  1  0
 11 12  2  0
 12 13  1  0
 13 14  2  0
 14 15  1  0
 15 16  1  0
 16 17  1  0
 17 18  1  0
 18 19  1  0
 19 20  1  0
 20 21  1  0
 21 22  1  0
 21 23  1  0
 16 24  1  0
 24 25  2  0
 25 26  1  0
 26 27  2  0
 27 28  1  0
 28 29  2  0
 15 30  1  0
 30 31  2  0
 10  3  1  0
 30 11  1  0
 23 18  1  0
 29 24  1  0
M  END
>  <pIC50>  (182) 
5.65

>  <ChEMBL_ID>  (182) 
CHEMBL275176

>  <document_journal>  (182) 
Bioorg. Med. Chem. Lett.

>  <bao_endpoint>  (182) 
BAO_0000190

>  <potential_duplicate>  (182) 
False

>  <uo_units>  (182) 
UO_0000065

>  <canonical_smiles>  (182) 
COc1ccc(OC)c(c1)C2=CC=CN(C(CN3CCC(O)C3)c4ccccc4)C2=O

>  <parent_molecule_chembl_id>  (182) 
CHEMBL275176

>  <assay_type>  (182) 
B

>  <src_id>  (182) 
1

>  <ligand_efficiency>  (182) 
{u'le': u'0.25', u'bei': u'13.45', u'sei': u'9.08', u'lle': u'3.2'}

>  <standard_flag>  (182) 
True

>  <molecule_chembl_id>  (182) 
CHEMBL275176

>  <target_organism>  (182) 
Homo sapiens

>  <standard_units>  (182) 
nM

>  <record_id>  (182) 
15944

>  <document_chembl_id>  (182) 
CHEMBL1136656

>  <bao_format>  (182) 
BAO_0000219

>  <data_validity_description>  (182) 
None

>  <activity_id>  (182) 
917802

>  <standard_type>  (182) 
IC50

>  <target_chembl_id>  (182) 
CHEMBL233

>  <data_validity_comment>  (182) 
None

>  <published_value>  (182) 
2220

>  <document_year>  (182) 
2003

>  <target_pref_name>  (182) 
Mu opioid receptor

>  <assay_chembl_id>  (182) 
CHEMBL754565

>  <standard_relation>  (182) 
=

>  <assay_description>  (182) 
Inhibition of [125I]Enkephalin binding to human mu opioid receptor from membranes of HEK293 cells

>  <published_relation>  (182) 
=

>  <standard_value>  (182) 
2220

>  <qudt_units>  (182) 
http://www.openphacts.org/units/Nanomolar

>  <target_tax_id>  (182) 
9606

>  <bao_label>  (182) 
cell-based format

>  <published_units>  (182) 
nM

>  <pchembl_value>  (182) 
5.65

>  <published_type>  (182) 
IC50

>  <activity_comment>  (182) 
None

$$$$

     RDKit          

 28 31  0  0  0  0  0  0  0  0999 V2000
    0.0000    0.0000    0.0000 Cl  0  0  0  0  0  0  0  0  0  0  0  0
    0.0000    0.0000    0.0000 C   0  0  0  0  0  0  0  0  0  0  0  0
    0.0000    0.0000    0.0000 C   0  0  0  0  0  0  0  0  0  0  0  0
    0.0000    0.0000    0.0000 C   0  0  0  0  0  0  0  0  0  0  0  0
    0.0000    0.0000    0.0000 C   0  0  0  0  0  0  0  0  0  0  0  0
    0.0000    0.0000    0.0000 C   0  0  0  0  0  0  0  0  0  0  0  0
    0.0000    0.0000    0.0000 C   0  0  0  0  0  0  0  0  0  0  0  0
    0.0000    0.0000    0.0000 C   0  0  0  0  0  0  0  0  0  0  0  0
    0.0000    0.0000    0.0000 C   0  0  0  0  0  0  0  0  0  0  0  0
    0.0000    0.0000    0.0000 N   0  0  0  0  0  0  0  0  0  0  0  0
    0.0000    0.0000    0.0000 C   0  0  0  0  0  0  0  0  0  0  0  0
    0.0000    0.0000    0.0000 C   0  0  0  0  0  0  0  0  0  0  0  0
    0.0000    0.0000    0.0000 N   0  0  0  0  0  0  0  0  0  0  0  0
    0.0000    0.0000    0.0000 C   0  0  0  0  0  0  0  0  0  0  0  0
    0.0000    0.0000    0.0000 C   0  0  0  0  0  0  0  0  0  0  0  0
    0.0000    0.0000    0.0000 C   0  0  0  0  0  0  0  0  0  0  0  0
    0.0000    0.0000    0.0000 C   0  0  0  0  0  0  0  0  0  0  0  0
    0.0000    0.0000    0.0000 C   0  0  0  0  0  0  0  0  0  0  0  0
    0.0000    0.0000    0.0000 C   0  0  0  0  0  0  0  0  0  0  0  0
    0.0000    0.0000    0.0000 C   0  0  0  0  0  0  0  0  0  0  0  0
    0.0000    0.0000    0.0000 C   0  0  0  0  0  0  0  0  0  0  0  0
    0.0000    0.0000    0.0000 C   0  0  0  0  0  0  0  0  0  0  0  0
    0.0000    0.0000    0.0000 C   0  0  0  0  0  0  0  0  0  0  0  0
    0.0000    0.0000    0.0000 C   0  0  0  0  0  0  0  0  0  0  0  0
    0.0000    0.0000    0.0000 O   0  0  0  0  0  0  0  0  0  0  0  0
    0.0000    0.0000    0.0000 C   0  0  0  0  0  0  0  0  0  0  0  0
    0.0000    0.0000    0.0000 Cl  0  0  0  0  0  0  0  0  0  0  0  0
    0.0000    0.0000    0.0000 C   0  0  0  0  0  0  0  0  0  0  0  0
  1  2  1  0
  2  3  2  0
  3  4  1  0
  4  5  2  0
  5  6  1  0
  6  7  2  0
  7  8  1  0
  8  9  2  0
  9 10  1  0
 10 11  1  0
 11 12  1  0
 12 13  1  0
 13 14  1  0
 14 15  1  0
 15 16  1  0
 16 17  1  0
 11 18  1  0
 18 19  2  0
 19 20  1  0
 20 21  2  0
 21 22  1  0
 22 23  2  0
 10 24  1  0
 24 25  2  0
  5 26  1  0
 26 27  1  0
 26 28  2  0
 28  2  1  0
 24  6  1  0
 17 13  1  0
 23 18  1  0
M  END
>  <pIC50>  (183) 
5.68

>  <ChEMBL_ID>  (183) 
CHEMBL14969

>  <document_journal>  (183) 
Bioorg. Med. Chem. Lett.

>  <bao_endpoint>  (183) 
BAO_0000190

>  <potential_duplicate>  (183) 
False

>  <uo_units>  (183) 
UO_0000065

>  <canonical_smiles>  (183) 
Clc1ccc(C2=CC=CN(C(CN3CCCC3)c4ccccc4)C2=O)c(Cl)c1

>  <parent_molecule_chembl_id>  (183) 
CHEMBL14969

>  <assay_type>  (183) 
B

>  <src_id>  (183) 
1

>  <ligand_efficiency>  (183) 
{u'le': u'0.28', u'bei': u'13.74', u'sei': u'24.11', u'lle': u'0.78'}

>  <standard_flag>  (183) 
True

>  <molecule_chembl_id>  (183) 
CHEMBL14969

>  <target_organism>  (183) 
Homo sapiens

>  <standard_units>  (183) 
nM

>  <record_id>  (183) 
15957

>  <document_chembl_id>  (183) 
CHEMBL1136656

>  <bao_format>  (183) 
BAO_0000219

>  <data_validity_description>  (183) 
None

>  <activity_id>  (183) 
932051

>  <standard_type>  (183) 
IC50

>  <target_chembl_id>  (183) 
CHEMBL233

>  <data_validity_comment>  (183) 
None

>  <published_value>  (183) 
2100

>  <document_year>  (183) 
2003

>  <target_pref_name>  (183) 
Mu opioid receptor

>  <assay_chembl_id>  (183) 
CHEMBL754565

>  <standard_relation>  (183) 
=

>  <assay_description>  (183) 
Inhibition of [125I]Enkephalin binding to human mu opioid receptor from membranes of HEK293 cells

>  <published_relation>  (183) 
=

>  <standard_value>  (183) 
2100

>  <qudt_units>  (183) 
http://www.openphacts.org/units/Nanomolar

>  <target_tax_id>  (183) 
9606

>  <bao_label>  (183) 
cell-based format

>  <published_units>  (183) 
nM

>  <pchembl_value>  (183) 
5.68

>  <published_type>  (183) 
IC50

>  <activity_comment>  (183) 
None

$$$$

     RDKit          

 30 33  0  0  0  0  0  0  0  0999 V2000
    0.0000    0.0000    0.0000 C   0  0  0  0  0  0  0  0  0  0  0  0
    0.0000    0.0000    0.0000 C   0  0  0  0  0  0  0  0  0  0  0  0
    0.0000    0.0000    0.0000 O   0  0  0  0  0  0  0  0  0  0  0  0
    0.0000    0.0000    0.0000 C   0  0  0  0  0  0  0  0  0  0  0  0
    0.0000    0.0000    0.0000 C   0  0  0  0  0  0  0  0  0  0  0  0
    0.0000    0.0000    0.0000 C   0  0  0  0  0  0  0  0  0  0  0  0
    0.0000    0.0000    0.0000 C   0  0  0  0  0  0  0  0  0  0  0  0
    0.0000    0.0000    0.0000 C   0  0  0  0  0  0  0  0  0  0  0  0
    0.0000    0.0000    0.0000 C   0  0  0  0  0  0  0  0  0  0  0  0
    0.0000    0.0000    0.0000 C   0  0  0  0  0  0  0  0  0  0  0  0
    0.0000    0.0000    0.0000 C   0  0  0  0  0  0  0  0  0  0  0  0
    0.0000    0.0000    0.0000 C   0  0  0  0  0  0  0  0  0  0  0  0
    0.0000    0.0000    0.0000 C   0  0  0  0  0  0  0  0  0  0  0  0
    0.0000    0.0000    0.0000 N   0  0  0  0  0  0  0  0  0  0  0  0
    0.0000    0.0000    0.0000 C   0  0  0  0  0  0  0  0  0  0  0  0
    0.0000    0.0000    0.0000 C   0  0  0  0  0  0  0  0  0  0  0  0
    0.0000    0.0000    0.0000 N   0  0  0  0  0  0  0  0  0  0  0  0
    0.0000    0.0000    0.0000 C   0  0  0  0  0  0  0  0  0  0  0  0
    0.0000    0.0000    0.0000 C   0  0  0  0  0  0  0  0  0  0  0  0
    0.0000    0.0000    0.0000 C   0  0  0  0  0  0  0  0  0  0  0  0
    0.0000    0.0000    0.0000 O   0  0  0  0  0  0  0  0  0  0  0  0
    0.0000    0.0000    0.0000 C   0  0  0  0  0  0  0  0  0  0  0  0
    0.0000    0.0000    0.0000 C   0  0  0  0  0  0  0  0  0  0  0  0
    0.0000    0.0000    0.0000 C   0  0  0  0  0  0  0  0  0  0  0  0
    0.0000    0.0000    0.0000 C   0  0  0  0  0  0  0  0  0  0  0  0
    0.0000    0.0000    0.0000 C   0  0  0  0  0  0  0  0  0  0  0  0
    0.0000    0.0000    0.0000 C   0  0  0  0  0  0  0  0  0  0  0  0
    0.0000    0.0000    0.0000 C   0  0  0  0  0  0  0  0  0  0  0  0
    0.0000    0.0000    0.0000 C   0  0  0  0  0  0  0  0  0  0  0  0
    0.0000    0.0000    0.0000 O   0  0  0  0  0  0  0  0  0  0  0  0
  1  2  1  0
  2  3  2  0
  2  4  1  0
  4  5  2  0
  5  6  1  0
  6  7  2  0
  7  8  1  0
  8  9  2  0
  7 10  1  0
 10 11  2  0
 11 12  1  0
 12 13  2  0
 13 14  1  0
 14 15  1  0
 15 16  1  0
 16 17  1  0
 17 18  1  0
 18 19  1  0
 19 20  1  0
 20 21  1  0
 20 22  1  0
 15 23  1  0
 23 24  2  0
 24 25  1  0
 25 26  2  0
 26 27  1  0
 27 28  2  0
 14 29  1  0
 29 30  2  0
  9  4  1  0
 29 10  1  0
 22 17  1  0
 28 23  1  0
M  END
>  <pIC50>  (184) 
5.76

>  <ChEMBL_ID>  (184) 
CHEMBL14653

>  <document_journal>  (184) 
Bioorg. Med. Chem. Lett.

>  <bao_endpoint>  (184) 
BAO_0000190

>  <potential_duplicate>  (184) 
False

>  <uo_units>  (184) 
UO_0000065

>  <canonical_smiles>  (184) 
CC(=O)c1ccc(cc1)C2=CC=CN(C(CN3CCC(O)C3)c4ccccc4)C2=O

>  <parent_molecule_chembl_id>  (184) 
CHEMBL14653

>  <assay_type>  (184) 
B

>  <src_id>  (184) 
1

>  <ligand_efficiency>  (184) 
{u'le': u'0.26', u'bei': u'14.3', u'sei': u'9.46', u'lle': u'3.54'}

>  <standard_flag>  (184) 
True

>  <molecule_chembl_id>  (184) 
CHEMBL14653

>  <target_organism>  (184) 
Homo sapiens

>  <standard_units>  (184) 
nM

>  <record_id>  (184) 
15928

>  <document_chembl_id>  (184) 
CHEMBL1136656

>  <bao_format>  (184) 
BAO_0000219

>  <data_validity_description>  (184) 
None

>  <activity_id>  (184) 
933530

>  <standard_type>  (184) 
IC50

>  <target_chembl_id>  (184) 
CHEMBL233

>  <data_validity_comment>  (184) 
None

>  <published_value>  (184) 
1750

>  <document_year>  (184) 
2003

>  <target_pref_name>  (184) 
Mu opioid receptor

>  <assay_chembl_id>  (184) 
CHEMBL754565

>  <standard_relation>  (184) 
=

>  <assay_description>  (184) 
Inhibition of [125I]Enkephalin binding to human mu opioid receptor from membranes of HEK293 cells

>  <published_relation>  (184) 
=

>  <standard_value>  (184) 
1750

>  <qudt_units>  (184) 
http://www.openphacts.org/units/Nanomolar

>  <target_tax_id>  (184) 
9606

>  <bao_label>  (184) 
cell-based format

>  <published_units>  (184) 
nM

>  <pchembl_value>  (184) 
5.76

>  <published_type>  (184) 
IC50

>  <activity_comment>  (184) 
None

$$$$

     RDKit          

 28 31  0  0  0  0  0  0  0  0999 V2000
    0.0000    0.0000    0.0000 N   0  0  0  0  0  0  0  0  0  0  0  0
    0.0000    0.0000    0.0000 C   0  0  0  0  0  0  0  0  0  0  0  0
    0.0000    0.0000    0.0000 C   0  0  0  0  0  0  0  0  0  0  0  0
    0.0000    0.0000    0.0000 C   0  0  0  0  0  0  0  0  0  0  0  0
    0.0000    0.0000    0.0000 C   0  0  0  0  0  0  0  0  0  0  0  0
    0.0000    0.0000    0.0000 C   0  0  0  0  0  0  0  0  0  0  0  0
    0.0000    0.0000    0.0000 C   0  0  0  0  0  0  0  0  0  0  0  0
    0.0000    0.0000    0.0000 C   0  0  0  0  0  0  0  0  0  0  0  0
    0.0000    0.0000    0.0000 C   0  0  0  0  0  0  0  0  0  0  0  0
    0.0000    0.0000    0.0000 C   0  0  0  0  0  0  0  0  0  0  0  0
    0.0000    0.0000    0.0000 C   0  0  0  0  0  0  0  0  0  0  0  0
    0.0000    0.0000    0.0000 N   0  0  0  0  0  0  0  0  0  0  0  0
    0.0000    0.0000    0.0000 C   0  0  0  0  0  0  0  0  0  0  0  0
    0.0000    0.0000    0.0000 C   0  0  0  0  0  0  0  0  0  0  0  0
    0.0000    0.0000    0.0000 N   0  0  0  0  0  0  0  0  0  0  0  0
    0.0000    0.0000    0.0000 C   0  0  0  0  0  0  0  0  0  0  0  0
    0.0000    0.0000    0.0000 C   0  0  0  0  0  0  0  0  0  0  0  0
    0.0000    0.0000    0.0000 C   0  0  0  0  0  0  0  0  0  0  0  0
    0.0000    0.0000    0.0000 O   0  0  0  0  0  0  0  0  0  0  0  0
    0.0000    0.0000    0.0000 C   0  0  0  0  0  0  0  0  0  0  0  0
    0.0000    0.0000    0.0000 C   0  0  0  0  0  0  0  0  0  0  0  0
    0.0000    0.0000    0.0000 C   0  0  0  0  0  0  0  0  0  0  0  0
    0.0000    0.0000    0.0000 C   0  0  0  0  0  0  0  0  0  0  0  0
    0.0000    0.0000    0.0000 C   0  0  0  0  0  0  0  0  0  0  0  0
    0.0000    0.0000    0.0000 C   0  0  0  0  0  0  0  0  0  0  0  0
    0.0000    0.0000    0.0000 C   0  0  0  0  0  0  0  0  0  0  0  0
    0.0000    0.0000    0.0000 C   0  0  0  0  0  0  0  0  0  0  0  0
    0.0000    0.0000    0.0000 O   0  0  0  0  0  0  0  0  0  0  0  0
  1  2  1  0
  2  3  2  0
  3  4  1  0
  4  5  2  0
  5  6  1  0
  6  7  2  0
  6  8  1  0
  8  9  2  0
  9 10  1  0
 10 11  2  0
 11 12  1  0
 12 13  1  0
 13 14  1  0
 14 15  1  0
 15 16  1  0
 16 17  1  0
 17 18  1  0
 18 19  1  0
 18 20  1  0
 13 21  1  0
 21 22  2  0
 22 23  1  0
 23 24  2  0
 24 25  1  0
 25 26  2  0
 12 27  1  0
 27 28  2  0
  7  2  1  0
 27  8  1  0
 20 15  1  0
 26 21  1  0
M  END
>  <pIC50>  (185) 
5.54

>  <ChEMBL_ID>  (185) 
CHEMBL14959

>  <document_journal>  (185) 
Bioorg. Med. Chem. Lett.

>  <bao_endpoint>  (185) 
BAO_0000190

>  <potential_duplicate>  (185) 
False

>  <uo_units>  (185) 
UO_0000065

>  <canonical_smiles>  (185) 
Nc1cccc(c1)C2=CC=CN(C(CN3CCC(O)C3)c4ccccc4)C2=O

>  <parent_molecule_chembl_id>  (185) 
CHEMBL14959

>  <assay_type>  (185) 
B

>  <src_id>  (185) 
1

>  <ligand_efficiency>  (185) 
{u'le': u'0.27', u'bei': u'14.74', u'sei': u'7.93', u'lle': u'3.8'}

>  <standard_flag>  (185) 
True

>  <molecule_chembl_id>  (185) 
CHEMBL14959

>  <target_organism>  (185) 
Homo sapiens

>  <standard_units>  (185) 
nM

>  <record_id>  (185) 
15948

>  <document_chembl_id>  (185) 
CHEMBL1136656

>  <bao_format>  (185) 
BAO_0000219

>  <data_validity_description>  (185) 
None

>  <activity_id>  (185) 
936405

>  <standard_type>  (185) 
IC50

>  <target_chembl_id>  (185) 
CHEMBL233

>  <data_validity_comment>  (185) 
None

>  <published_value>  (185) 
2910

>  <document_year>  (185) 
2003

>  <target_pref_name>  (185) 
Mu opioid receptor

>  <assay_chembl_id>  (185) 
CHEMBL754565

>  <standard_relation>  (185) 
=

>  <assay_description>  (185) 
Inhibition of [125I]Enkephalin binding to human mu opioid receptor from membranes of HEK293 cells

>  <published_relation>  (185) 
=

>  <standard_value>  (185) 
2910

>  <qudt_units>  (185) 
http://www.openphacts.org/units/Nanomolar

>  <target_tax_id>  (185) 
9606

>  <bao_label>  (185) 
cell-based format

>  <published_units>  (185) 
nM

>  <pchembl_value>  (185) 
5.54

>  <published_type>  (185) 
IC50

>  <activity_comment>  (185) 
None

$$$$

     RDKit          

 29 31  0  0  0  0  0  0  0  0999 V2000
    0.0000    0.0000    0.0000 C   0  0  0  0  0  0  0  0  0  0  0  0
    0.0000    0.0000    0.0000 C   0  0  0  0  0  0  0  0  0  0  0  0
    0.0000    0.0000    0.0000 O   0  0  0  0  0  0  0  0  0  0  0  0
    0.0000    0.0000    0.0000 C   0  0  0  0  0  0  0  0  0  0  0  0
    0.0000    0.0000    0.0000 C   0  0  0  0  0  0  0  0  0  0  0  0
    0.0000    0.0000    0.0000 C   0  0  0  0  0  0  0  0  0  0  0  0
    0.0000    0.0000    0.0000 C   0  0  0  0  0  0  0  0  0  0  0  0
    0.0000    0.0000    0.0000 C   0  0  0  0  0  0  0  0  0  0  0  0
    0.0000    0.0000    0.0000 C   0  0  0  0  0  0  0  0  0  0  0  0
    0.0000    0.0000    0.0000 O   0  0  0  0  0  0  0  0  0  0  0  0
    0.0000    0.0000    0.0000 C   0  0  0  0  0  0  0  0  0  0  0  0
    0.0000    0.0000    0.0000 O   0  0  0  0  0  0  0  0  0  0  0  0
    0.0000    0.0000    0.0000 N   0  0  0  0  0  0  0  0  0  0  0  0
    0.0000    0.0000    0.0000 C   0  0  0  0  0  0  0  0  0  0  0  0
    0.0000    0.0000    0.0000 C   0  0  0  0  0  0  0  0  0  0  0  0
    0.0000    0.0000    0.0000 N   0  0  0  0  0  0  0  0  0  0  0  0
    0.0000    0.0000    0.0000 C   0  0  0  0  0  0  0  0  0  0  0  0
    0.0000    0.0000    0.0000 C   0  0  0  0  0  0  0  0  0  0  0  0
    0.0000    0.0000    0.0000 C   0  0  0  0  0  0  0  0  0  0  0  0
    0.0000    0.0000    0.0000 C   0  0  0  0  0  0  0  0  0  0  0  0
    0.0000    0.0000    0.0000 C   0  0  0  0  0  0  0  0  0  0  0  0
    0.0000    0.0000    0.0000 C   0  0  0  0  0  0  0  0  0  0  0  0
    0.0000    0.0000    0.0000 C   0  0  0  0  0  0  0  0  0  0  0  0
    0.0000    0.0000    0.0000 C   0  0  0  0  0  0  0  0  0  0  0  0
    0.0000    0.0000    0.0000 C   0  0  0  0  0  0  0  0  0  0  0  0
    0.0000    0.0000    0.0000 C   0  0  0  0  0  0  0  0  0  0  0  0
    0.0000    0.0000    0.0000 C   0  0  0  0  0  0  0  0  0  0  0  0
    0.0000    0.0000    0.0000 C   0  0  0  0  0  0  0  0  0  0  0  0
    0.0000    0.0000    0.0000 C   0  0  0  0  0  0  0  0  0  0  0  0
  1  2  1  0
  2  3  1  0
  3  4  1  0
  4  5  2  0
  5  6  1  0
  6  7  2  0
  7  8  1  0
  8  9  1  0
  9 10  1  0
 10 11  1  0
 11 12  2  0
 11 13  1  0
 13 14  1  0
 14 15  1  0
 15 16  1  0
 16 17  1  0
 17 18  1  0
 18 19  1  0
 19 20  1  0
 20 21  2  0
 21 22  1  0
 22 23  2  0
 23 24  1  0
 24 25  2  0
 16 26  1  0
 26 27  1  0
  7 28  1  0
 28 29  2  0
 29  4  1  0
 27 13  1  0
 25 20  1  0
M  END
>  <pIC50>  (186) 
5.77

>  <ChEMBL_ID>  (186) 
CHEMBL115249

>  <document_journal>  (186) 
J. Med. Chem.

>  <bao_endpoint>  (186) 
BAO_0000190

>  <potential_duplicate>  (186) 
False

>  <uo_units>  (186) 
UO_0000065

>  <canonical_smiles>  (186) 
CCOc1ccc(CCOC(=O)N2CCN(CCCc3ccccc3)CC2)cc1

>  <parent_molecule_chembl_id>  (186) 
CHEMBL115249

>  <assay_type>  (186) 
B

>  <src_id>  (186) 
1

>  <ligand_efficiency>  (186) 
{u'le': u'0.27', u'bei': u'14.56', u'sei': u'13.74', u'lle': u'0.99'}

>  <standard_flag>  (186) 
True

>  <molecule_chembl_id>  (186) 
CHEMBL115249

>  <target_organism>  (186) 
Homo sapiens

>  <standard_units>  (186) 
nM

>  <record_id>  (186) 
216613

>  <document_chembl_id>  (186) 
CHEMBL1134625

>  <bao_format>  (186) 
BAO_0000357

>  <data_validity_description>  (186) 
None

>  <activity_id>  (186) 
947148

>  <standard_type>  (186) 
IC50

>  <target_chembl_id>  (186) 
CHEMBL233

>  <data_validity_comment>  (186) 
None

>  <published_value>  (186) 
1690

>  <document_year>  (186) 
2001

>  <target_pref_name>  (186) 
Mu opioid receptor

>  <assay_chembl_id>  (186) 
CHEMBL757059

>  <standard_relation>  (186) 
=

>  <assay_description>  (186) 
Binding affinity against mu opiate receptor

>  <published_relation>  (186) 
=

>  <standard_value>  (186) 
1690

>  <qudt_units>  (186) 
http://www.openphacts.org/units/Nanomolar

>  <target_tax_id>  (186) 
9606

>  <bao_label>  (186) 
single protein format

>  <published_units>  (186) 
nM

>  <pchembl_value>  (186) 
5.77

>  <published_type>  (186) 
IC50

>  <activity_comment>  (186) 
None

$$$$

     RDKit          

 35 38  0  0  0  0  0  0  0  0999 V2000
    0.0000    0.0000    0.0000 F   0  0  0  0  0  0  0  0  0  0  0  0
    0.0000    0.0000    0.0000 C   0  0  0  0  0  0  0  0  0  0  0  0
    0.0000    0.0000    0.0000 C   0  0  0  0  0  0  0  0  0  0  0  0
    0.0000    0.0000    0.0000 C   0  0  0  0  0  0  0  0  0  0  0  0
    0.0000    0.0000    0.0000 C   0  0  0  0  0  0  0  0  0  0  0  0
    0.0000    0.0000    0.0000 C   0  0  0  0  0  0  0  0  0  0  0  0
    0.0000    0.0000    0.0000 C   0  0  0  0  0  0  0  0  0  0  0  0
    0.0000    0.0000    0.0000 C   0  0  0  0  0  0  0  0  0  0  0  0
    0.0000    0.0000    0.0000 O   0  0  0  0  0  0  0  0  0  0  0  0
    0.0000    0.0000    0.0000 N   0  0  0  0  0  0  0  0  0  0  0  0
    0.0000    0.0000    0.0000 C   0  0  0  0  0  0  0  0  0  0  0  0
    0.0000    0.0000    0.0000 C   0  0  0  0  0  0  0  0  0  0  0  0
    0.0000    0.0000    0.0000 N   0  0  0  0  0  0  0  0  0  0  0  0
    0.0000    0.0000    0.0000 C   0  0  0  0  0  0  0  0  0  0  0  0
    0.0000    0.0000    0.0000 C   0  0  0  0  0  0  0  0  0  0  0  0
    0.0000    0.0000    0.0000 C   0  0  0  0  0  0  0  0  0  0  0  0
    0.0000    0.0000    0.0000 C   0  0  0  0  0  0  0  0  0  0  0  0
    0.0000    0.0000    0.0000 C   0  0  0  0  0  0  0  0  0  0  0  0
    0.0000    0.0000    0.0000 C   0  0  0  0  0  0  0  0  0  0  0  0
    0.0000    0.0000    0.0000 C   0  0  0  0  0  0  0  0  0  0  0  0
    0.0000    0.0000    0.0000 C   0  0  0  0  0  0  0  0  0  0  0  0
    0.0000    0.0000    0.0000 F   0  0  0  0  0  0  0  0  0  0  0  0
    0.0000    0.0000    0.0000 C   0  0  0  0  0  0  0  0  0  0  0  0
    0.0000    0.0000    0.0000 C   0  0  0  0  0  0  0  0  0  0  0  0
    0.0000    0.0000    0.0000 C   0  0  0  0  0  0  0  0  0  0  0  0
    0.0000    0.0000    0.0000 C   0  0  0  0  0  0  0  0  0  0  0  0
    0.0000    0.0000    0.0000 C   0  0  0  0  0  0  0  0  0  0  0  0
    0.0000    0.0000    0.0000 C   0  0  0  0  0  0  0  0  0  0  0  0
    0.0000    0.0000    0.0000 F   0  0  0  0  0  0  0  0  0  0  0  0
    0.0000    0.0000    0.0000 C   0  0  0  0  0  0  0  0  0  0  0  0
    0.0000    0.0000    0.0000 C   0  0  0  0  0  0  0  0  0  0  0  0
    0.0000    0.0000    0.0000 C   0  0  0  0  0  0  0  0  0  0  0  0
    0.0000    0.0000    0.0000 C   0  0  0  0  0  0  0  0  0  0  0  0
    0.0000    0.0000    0.0000 C   0  0  0  0  0  0  0  0  0  0  0  0
    0.0000    0.0000    0.0000 C   0  0  0  0  0  0  0  0  0  0  0  0
  1  2  1  0
  2  3  2  0
  3  4  1  0
  4  5  2  0
  5  6  1  0
  6  7  1  0
  7  8  1  0
  8  9  2  0
  8 10  1  0
 10 11  1  0
 11 12  1  0
 12 13  1  0
 13 14  1  0
 14 15  1  0
 15 16  1  0
 16 17  1  0
 17 18  1  0
 18 19  2  0
 19 20  1  0
 20 21  2  0
 21 22  1  0
 21 23  1  0
 23 24  2  0
 17 25  1  0
 25 26  2  0
 26 27  1  0
 27 28  2  0
 28 29  1  0
 28 30  1  0
 30 31  2  0
 13 32  1  0
 32 33  1  0
  5 34  1  0
 34 35  2  0
 35  2  1  0
 33 10  1  0
 24 18  1  0
 31 25  1  0
M  END
>  <pIC50>  (187) 
5.44

>  <ChEMBL_ID>  (187) 
CHEMBL116735

>  <document_journal>  (187) 
J. Med. Chem.

>  <bao_endpoint>  (187) 
BAO_0000190

>  <potential_duplicate>  (187) 
False

>  <uo_units>  (187) 
UO_0000065

>  <canonical_smiles>  (187) 
Fc1ccc(CCC(=O)N2CCN(CCCC(c3ccc(F)cc3)c4ccc(F)cc4)CC2)cc1

>  <parent_molecule_chembl_id>  (187) 
CHEMBL116735

>  <assay_type>  (187) 
B

>  <src_id>  (187) 
1

>  <ligand_efficiency>  (187) 
{u'le': u'0.21', u'bei': u'11.31', u'sei': u'23.09', u'lle': u'-0.97'}

>  <standard_flag>  (187) 
True

>  <molecule_chembl_id>  (187) 
CHEMBL116735

>  <target_organism>  (187) 
Homo sapiens

>  <standard_units>  (187) 
nM

>  <record_id>  (187) 
216624

>  <document_chembl_id>  (187) 
CHEMBL1134625

>  <bao_format>  (187) 
BAO_0000357

>  <data_validity_description>  (187) 
None

>  <activity_id>  (187) 
949623

>  <standard_type>  (187) 
IC50

>  <target_chembl_id>  (187) 
CHEMBL233

>  <data_validity_comment>  (187) 
None

>  <published_value>  (187) 
3660

>  <document_year>  (187) 
2001

>  <target_pref_name>  (187) 
Mu opioid receptor

>  <assay_chembl_id>  (187) 
CHEMBL757059

>  <standard_relation>  (187) 
=

>  <assay_description>  (187) 
Binding affinity against mu opiate receptor

>  <published_relation>  (187) 
=

>  <standard_value>  (187) 
3660

>  <qudt_units>  (187) 
http://www.openphacts.org/units/Nanomolar

>  <target_tax_id>  (187) 
9606

>  <bao_label>  (187) 
single protein format

>  <published_units>  (187) 
nM

>  <pchembl_value>  (187) 
5.44

>  <published_type>  (187) 
IC50

>  <activity_comment>  (187) 
None

$$$$

     RDKit          

 38 41  0  0  0  0  0  0  0  0999 V2000
    0.0000    0.0000    0.0000 F   0  0  0  0  0  0  0  0  0  0  0  0
    0.0000    0.0000    0.0000 C   0  0  0  0  0  0  0  0  0  0  0  0
    0.0000    0.0000    0.0000 C   0  0  0  0  0  0  0  0  0  0  0  0
    0.0000    0.0000    0.0000 C   0  0  0  0  0  0  0  0  0  0  0  0
    0.0000    0.0000    0.0000 C   0  0  0  0  0  0  0  0  0  0  0  0
    0.0000    0.0000    0.0000 C   0  0  0  0  0  0  0  0  0  0  0  0
    0.0000    0.0000    0.0000 C   0  0  0  0  0  0  0  0  0  0  0  0
    0.0000    0.0000    0.0000 C   0  0  0  0  0  0  0  0  0  0  0  0
    0.0000    0.0000    0.0000 C   0  0  0  0  0  0  0  0  0  0  0  0
    0.0000    0.0000    0.0000 C   0  0  0  0  0  0  0  0  0  0  0  0
    0.0000    0.0000    0.0000 C   0  0  0  0  0  0  0  0  0  0  0  0
    0.0000    0.0000    0.0000 N   0  0  0  0  0  0  0  0  0  0  0  0
    0.0000    0.0000    0.0000 C   0  0  0  0  0  0  0  0  0  0  0  0
    0.0000    0.0000    0.0000 C   0  0  0  0  0  0  0  0  0  0  0  0
    0.0000    0.0000    0.0000 C   0  0  0  0  0  0  0  0  0  0  0  0
    0.0000    0.0000    0.0000 C   0  0  0  0  0  0  0  0  0  0  0  0
    0.0000    0.0000    0.0000 C   0  0  0  0  0  0  0  0  0  0  0  0
    0.0000    0.0000    0.0000 N   0  0  0  0  0  0  0  0  0  0  0  0
    0.0000    0.0000    0.0000 C   0  0  0  0  0  0  0  0  0  0  0  0
    0.0000    0.0000    0.0000 O   0  0  0  0  0  0  0  0  0  0  0  0
    0.0000    0.0000    0.0000 O   0  0  0  0  0  0  0  0  0  0  0  0
    0.0000    0.0000    0.0000 C   0  0  0  0  0  0  0  0  0  0  0  0
    0.0000    0.0000    0.0000 C   0  0  0  0  0  0  0  0  0  0  0  0
    0.0000    0.0000    0.0000 C   0  0  0  0  0  0  0  0  0  0  0  0
    0.0000    0.0000    0.0000 C   0  0  0  0  0  0  0  0  0  0  0  0
    0.0000    0.0000    0.0000 C   0  0  0  0  0  0  0  0  0  0  0  0
    0.0000    0.0000    0.0000 C   0  0  0  0  0  0  0  0  0  0  0  0
    0.0000    0.0000    0.0000 C   0  0  0  0  0  0  0  0  0  0  0  0
    0.0000    0.0000    0.0000 C   0  0  0  0  0  0  0  0  0  0  0  0
    0.0000    0.0000    0.0000 C   0  0  0  0  0  0  0  0  0  0  0  0
    0.0000    0.0000    0.0000 N   0  0  0  0  0  0  0  0  0  0  0  0
    0.0000    0.0000    0.0000 C   0  0  0  0  0  0  0  0  0  0  0  0
    0.0000    0.0000    0.0000 C   0  0  0  0  0  0  0  0  0  0  0  0
    0.0000    0.0000    0.0000 C   0  0  0  0  0  0  0  0  0  0  0  0
    0.0000    0.0000    0.0000 C   0  0  0  0  0  0  0  0  0  0  0  0
    0.0000    0.0000    0.0000 F   0  0  0  0  0  0  0  0  0  0  0  0
    0.0000    0.0000    0.0000 C   0  0  0  0  0  0  0  0  0  0  0  0
    0.0000    0.0000    0.0000 C   0  0  0  0  0  0  0  0  0  0  0  0
  1  2  1  0
  2  3  2  0
  3  4  1  0
  4  5  2  0
  5  6  1  0
  6  7  2  0
  5  8  1  0
  8  9  1  0
  9 10  1  0
 10 11  1  0
 11 12  1  0
 12 13  1  0
 13 14  1  0
 14 15  1  0
 15 16  1  0
 16 17  1  0
 15 18  1  0
 18 19  1  0
 19 20  2  0
 19 21  1  0
 21 22  1  0
 22 23  1  0
 23 24  1  0
 24 25  2  0
 25 26  1  0
 26 27  2  0
 27 28  1  0
 28 29  2  0
 27 30  1  0
 30 31  3  0
  8 32  1  0
 32 33  2  0
 33 34  1  0
 34 35  2  0
 35 36  1  0
 35 37  1  0
 37 38  2  0
  7  2  1  0
 17 12  1  0
 29 24  1  0
 38 32  1  0
M  END
>  <pIC50>  (188) 
5.18

>  <ChEMBL_ID>  (188) 
CHEMBL116463

>  <document_journal>  (188) 
J. Med. Chem.

>  <bao_endpoint>  (188) 
BAO_0000190

>  <potential_duplicate>  (188) 
False

>  <uo_units>  (188) 
UO_0000065

>  <canonical_smiles>  (188) 
Fc1ccc(cc1)C(CCCN2CCC(CC2)NC(=O)OCCc3ccc(cc3)C#N)c4ccc(F)cc4

>  <parent_molecule_chembl_id>  (188) 
CHEMBL116463

>  <assay_type>  (188) 
B

>  <src_id>  (188) 
1

>  <ligand_efficiency>  (188) 
{u'le': u'0.19', u'bei': u'10.02', u'sei': u'7.93', u'lle': u'-1.24'}

>  <standard_flag>  (188) 
True

>  <molecule_chembl_id>  (188) 
CHEMBL116463

>  <target_organism>  (188) 
Homo sapiens

>  <standard_units>  (188) 
nM

>  <record_id>  (188) 
216610

>  <document_chembl_id>  (188) 
CHEMBL1134625

>  <bao_format>  (188) 
BAO_0000357

>  <data_validity_description>  (188) 
None

>  <activity_id>  (188) 
949640

>  <standard_type>  (188) 
IC50

>  <target_chembl_id>  (188) 
CHEMBL233

>  <data_validity_comment>  (188) 
None

>  <published_value>  (188) 
6545

>  <document_year>  (188) 
2001

>  <target_pref_name>  (188) 
Mu opioid receptor

>  <assay_chembl_id>  (188) 
CHEMBL757059

>  <standard_relation>  (188) 
=

>  <assay_description>  (188) 
Binding affinity against mu opiate receptor

>  <published_relation>  (188) 
=

>  <standard_value>  (188) 
6545

>  <qudt_units>  (188) 
http://www.openphacts.org/units/Nanomolar

>  <target_tax_id>  (188) 
9606

>  <bao_label>  (188) 
single protein format

>  <published_units>  (188) 
nM

>  <pchembl_value>  (188) 
5.18

>  <published_type>  (188) 
IC50

>  <activity_comment>  (188) 
None

$$$$

     RDKit          

 37 40  0  0  0  0  0  0  0  0999 V2000
    0.0000    0.0000    0.0000 F   0  0  0  0  0  0  0  0  0  0  0  0
    0.0000    0.0000    0.0000 C   0  0  0  0  0  0  0  0  0  0  0  0
    0.0000    0.0000    0.0000 C   0  0  0  0  0  0  0  0  0  0  0  0
    0.0000    0.0000    0.0000 C   0  0  0  0  0  0  0  0  0  0  0  0
    0.0000    0.0000    0.0000 C   0  0  0  0  0  0  0  0  0  0  0  0
    0.0000    0.0000    0.0000 C   0  0  0  0  0  0  0  0  0  0  0  0
    0.0000    0.0000    0.0000 C   0  0  0  0  0  0  0  0  0  0  0  0
    0.0000    0.0000    0.0000 C   0  0  0  0  0  0  0  0  0  0  0  0
    0.0000    0.0000    0.0000 C   0  0  0  0  0  0  0  0  0  0  0  0
    0.0000    0.0000    0.0000 C   0  0  0  0  0  0  0  0  0  0  0  0
    0.0000    0.0000    0.0000 C   0  0  0  0  0  0  0  0  0  0  0  0
    0.0000    0.0000    0.0000 N   0  0  0  0  0  0  0  0  0  0  0  0
    0.0000    0.0000    0.0000 C   0  0  0  0  0  0  0  0  0  0  0  0
    0.0000    0.0000    0.0000 C   0  0  0  0  0  0  0  0  0  0  0  0
    0.0000    0.0000    0.0000 N   0  0  0  0  0  0  0  0  0  0  0  0
    0.0000    0.0000    0.0000 C   0  0  0  0  0  0  0  0  0  0  0  0
    0.0000    0.0000    0.0000 C   0  0  0  0  0  0  0  0  0  0  0  0
    0.0000    0.0000    0.0000 C   0  0  0  0  0  0  0  0  0  0  0  0
    0.0000    0.0000    0.0000 O   0  0  0  0  0  0  0  0  0  0  0  0
    0.0000    0.0000    0.0000 O   0  0  0  0  0  0  0  0  0  0  0  0
    0.0000    0.0000    0.0000 C   0  0  0  0  0  0  0  0  0  0  0  0
    0.0000    0.0000    0.0000 C   0  0  0  0  0  0  0  0  0  0  0  0
    0.0000    0.0000    0.0000 C   0  0  0  0  0  0  0  0  0  0  0  0
    0.0000    0.0000    0.0000 C   0  0  0  0  0  0  0  0  0  0  0  0
    0.0000    0.0000    0.0000 C   0  0  0  0  0  0  0  0  0  0  0  0
    0.0000    0.0000    0.0000 C   0  0  0  0  0  0  0  0  0  0  0  0
    0.0000    0.0000    0.0000 C   0  0  0  0  0  0  0  0  0  0  0  0
    0.0000    0.0000    0.0000 C   0  0  0  0  0  0  0  0  0  0  0  0
    0.0000    0.0000    0.0000 C   0  0  0  0  0  0  0  0  0  0  0  0
    0.0000    0.0000    0.0000 N   0  0  0  0  0  0  0  0  0  0  0  0
    0.0000    0.0000    0.0000 C   0  0  0  0  0  0  0  0  0  0  0  0
    0.0000    0.0000    0.0000 C   0  0  0  0  0  0  0  0  0  0  0  0
    0.0000    0.0000    0.0000 C   0  0  0  0  0  0  0  0  0  0  0  0
    0.0000    0.0000    0.0000 C   0  0  0  0  0  0  0  0  0  0  0  0
    0.0000    0.0000    0.0000 F   0  0  0  0  0  0  0  0  0  0  0  0
    0.0000    0.0000    0.0000 C   0  0  0  0  0  0  0  0  0  0  0  0
    0.0000    0.0000    0.0000 C   0  0  0  0  0  0  0  0  0  0  0  0
  1  2  1  0
  2  3  2  0
  3  4  1  0
  4  5  2  0
  5  6  1  0
  6  7  2  0
  5  8  1  0
  8  9  1  0
  9 10  1  0
 10 11  1  0
 11 12  1  0
 12 13  1  0
 13 14  1  0
 14 15  1  0
 15 16  1  0
 16 17  1  0
 15 18  1  0
 18 19  2  0
 18 20  1  0
 20 21  1  0
 21 22  1  0
 22 23  1  0
 23 24  2  0
 24 25  1  0
 25 26  2  0
 26 27  1  0
 27 28  2  0
 26 29  1  0
 29 30  3  0
  8 31  1  0
 31 32  2  0
 32 33  1  0
 33 34  2  0
 34 35  1  0
 34 36  1  0
 36 37  2  0
  7  2  1  0
 17 12  1  0
 28 23  1  0
 37 31  1  0
M  END
>  <pIC50>  (189) 
5.83

>  <ChEMBL_ID>  (189) 
CHEMBL326263

>  <document_journal>  (189) 
J. Med. Chem.

>  <bao_endpoint>  (189) 
BAO_0000190

>  <potential_duplicate>  (189) 
False

>  <uo_units>  (189) 
UO_0000065

>  <canonical_smiles>  (189) 
Fc1ccc(cc1)C(CCCN2CCN(CC2)C(=O)OCCc3ccc(cc3)C#N)c4ccc(F)cc4

>  <parent_molecule_chembl_id>  (189) 
CHEMBL326263

>  <assay_type>  (189) 
B

>  <src_id>  (189) 
1

>  <ligand_efficiency>  (189) 
{u'le': u'0.22', u'bei': u'11.58', u'sei': u'10.31', u'lle': u'-0.65'}

>  <standard_flag>  (189) 
True

>  <molecule_chembl_id>  (189) 
CHEMBL326263

>  <target_organism>  (189) 
Homo sapiens

>  <standard_units>  (189) 
nM

>  <record_id>  (189) 
216626

>  <document_chembl_id>  (189) 
CHEMBL1134625

>  <bao_format>  (189) 
BAO_0000357

>  <data_validity_description>  (189) 
None

>  <activity_id>  (189) 
951002

>  <standard_type>  (189) 
IC50

>  <target_chembl_id>  (189) 
CHEMBL233

>  <data_validity_comment>  (189) 
None

>  <published_value>  (189) 
1470

>  <document_year>  (189) 
2001

>  <target_pref_name>  (189) 
Mu opioid receptor

>  <assay_chembl_id>  (189) 
CHEMBL757059

>  <standard_relation>  (189) 
=

>  <assay_description>  (189) 
Binding affinity against mu opiate receptor

>  <published_relation>  (189) 
=

>  <standard_value>  (189) 
1470

>  <qudt_units>  (189) 
http://www.openphacts.org/units/Nanomolar

>  <target_tax_id>  (189) 
9606

>  <bao_label>  (189) 
single protein format

>  <published_units>  (189) 
nM

>  <pchembl_value>  (189) 
5.83

>  <published_type>  (189) 
IC50

>  <activity_comment>  (189) 
None

$$$$

     RDKit          

 29 33  0  0  0  0  0  0  0  0999 V2000
    0.0000    0.0000    0.0000 Cl  0  0  0  0  0  0  0  0  0  0  0  0
    0.0000    0.0000    0.0000 C   0  0  0  0  0  0  0  0  0  0  0  0
    0.0000    0.0000    0.0000 C   0  0  0  0  0  0  0  0  0  0  0  0
    0.0000    0.0000    0.0000 C   0  0  0  0  0  0  0  0  0  0  0  0
    0.0000    0.0000    0.0000 O   0  0  0  0  0  0  0  0  0  0  0  0
    0.0000    0.0000    0.0000 C   0  0  0  0  0  0  0  0  0  0  0  0
    0.0000    0.0000    0.0000 O   0  0  0  0  0  0  0  0  0  0  0  0
    0.0000    0.0000    0.0000 C   0  0  0  0  0  0  0  0  0  0  0  0
    0.0000    0.0000    0.0000 C   0  0  0  0  0  0  0  0  0  0  0  0
    0.0000    0.0000    0.0000 C   0  0  0  0  0  0  0  0  0  0  0  0
    0.0000    0.0000    0.0000 C   0  0  0  0  0  0  0  0  0  0  0  0
    0.0000    0.0000    0.0000 N   0  0  0  0  0  0  0  0  0  0  0  0
    0.0000    0.0000    0.0000 C   0  0  0  0  0  0  0  0  0  0  0  0
    0.0000    0.0000    0.0000 C   0  0  0  0  0  0  0  0  0  0  0  0
    0.0000    0.0000    0.0000 C   0  0  0  0  0  0  0  0  0  0  0  0
    0.0000    0.0000    0.0000 C   0  0  0  0  0  0  0  0  0  0  0  0
    0.0000    0.0000    0.0000 C   0  0  0  0  0  0  0  0  0  0  0  0
    0.0000    0.0000    0.0000 N   0  0  0  0  0  0  0  0  0  0  0  0
    0.0000    0.0000    0.0000 C   0  0  0  0  0  0  0  0  0  0  0  0
    0.0000    0.0000    0.0000 O   0  0  0  0  0  0  0  0  0  0  0  0
    0.0000    0.0000    0.0000 C   0  0  0  0  0  0  0  0  0  0  0  0
    0.0000    0.0000    0.0000 O   0  0  0  0  0  0  0  0  0  0  0  0
    0.0000    0.0000    0.0000 N   0  0  0  0  0  0  0  0  0  0  0  0
    0.0000    0.0000    0.0000 C   0  0  0  0  0  0  0  0  0  0  0  0
    0.0000    0.0000    0.0000 C   0  0  0  0  0  0  0  0  0  0  0  0
    0.0000    0.0000    0.0000 C   0  0  0  0  0  0  0  0  0  0  0  0
    0.0000    0.0000    0.0000 C   0  0  0  0  0  0  0  0  0  0  0  0
    0.0000    0.0000    0.0000 C   0  0  0  0  0  0  0  0  0  0  0  0
    0.0000    0.0000    0.0000 C   0  0  0  0  0  0  0  0  0  0  0  0
  1  2  1  0
  2  3  2  0
  3  4  1  0
  4  5  1  0
  5  6  1  0
  6  7  1  0
  7  8  1  0
  8  9  1  0
  9 10  2  0
 10 11  1  0
 11 12  1  0
 12 13  1  0
 13 14  1  0
 14 15  1  0
 15 16  1  0
 16 17  1  0
 15 18  1  0
 18 19  1  0
 19 20  2  0
 19 21  1  0
 21 22  2  0
 21 23  1  0
 23 24  1  0
 24 25  2  0
 25 26  1  0
 26 27  2  0
 27 28  1  0
 28 29  2  0
 10  2  1  0
  8  4  2  0
 17 12  1  0
 29 18  1  0
 29 24  1  0
M  END
>  <pIC50>  (190) 
8.2

>  <ChEMBL_ID>  (190) 
CHEMBL325945

>  <document_journal>  (190) 
J. Med. Chem.

>  <bao_endpoint>  (190) 
BAO_0000190

>  <potential_duplicate>  (190) 
False

>  <uo_units>  (190) 
UO_0000065

>  <canonical_smiles>  (190) 
Clc1cc2OCOc2cc1CN3CCC(CC3)N4C(=O)C(=O)Nc5ccccc45

>  <parent_molecule_chembl_id>  (190) 
CHEMBL325945

>  <assay_type>  (190) 
B

>  <src_id>  (190) 
1

>  <ligand_efficiency>  (190) 
{u'le': u'0.39', u'bei': u'19.82', u'sei': u'11.53', u'lle': u'5.82'}

>  <standard_flag>  (190) 
True

>  <molecule_chembl_id>  (190) 
CHEMBL325945

>  <target_organism>  (190) 
Homo sapiens

>  <standard_units>  (190) 
nM

>  <record_id>  (190) 
216596

>  <document_chembl_id>  (190) 
CHEMBL1134625

>  <bao_format>  (190) 
BAO_0000357

>  <data_validity_description>  (190) 
None

>  <activity_id>  (190) 
956444

>  <standard_type>  (190) 
IC50

>  <target_chembl_id>  (190) 
CHEMBL233

>  <data_validity_comment>  (190) 
None

>  <published_value>  (190) 
6.3

>  <document_year>  (190) 
2001

>  <target_pref_name>  (190) 
Mu opioid receptor

>  <assay_chembl_id>  (190) 
CHEMBL757059

>  <standard_relation>  (190) 
=

>  <assay_description>  (190) 
Binding affinity against mu opiate receptor

>  <published_relation>  (190) 
=

>  <standard_value>  (190) 
6.3

>  <qudt_units>  (190) 
http://www.openphacts.org/units/Nanomolar

>  <target_tax_id>  (190) 
9606

>  <bao_label>  (190) 
single protein format

>  <published_units>  (190) 
nM

>  <pchembl_value>  (190) 
8.2

>  <published_type>  (190) 
IC50

>  <activity_comment>  (190) 
None

$$$$

     RDKit          

 33 36  0  0  0  0  0  0  0  0999 V2000
    0.0000    0.0000    0.0000 F   0  0  0  0  0  0  0  0  0  0  0  0
    0.0000    0.0000    0.0000 C   0  0  0  0  0  0  0  0  0  0  0  0
    0.0000    0.0000    0.0000 C   0  0  0  0  0  0  0  0  0  0  0  0
    0.0000    0.0000    0.0000 C   0  0  0  0  0  0  0  0  0  0  0  0
    0.0000    0.0000    0.0000 C   0  0  0  0  0  0  0  0  0  0  0  0
    0.0000    0.0000    0.0000 C   0  0  0  0  0  0  0  0  0  0  0  0
    0.0000    0.0000    0.0000 C   0  0  0  0  0  0  0  0  0  0  0  0
    0.0000    0.0000    0.0000 C   0  0  0  0  0  0  0  0  0  0  0  0
    0.0000    0.0000    0.0000 O   0  0  0  0  0  0  0  0  0  0  0  0
    0.0000    0.0000    0.0000 C   0  0  0  0  0  0  0  0  0  0  0  0
    0.0000    0.0000    0.0000 C   0  0  0  0  0  0  0  0  0  0  0  0
    0.0000    0.0000    0.0000 N   0  0  0  0  0  0  0  0  0  0  0  0
    0.0000    0.0000    0.0000 C   0  0  0  0  0  0  0  0  0  0  0  0
    0.0000    0.0000    0.0000 C   0  0  0  0  0  0  0  0  0  0  0  0
    0.0000    0.0000    0.0000 N   0  0  0  0  0  0  0  0  0  0  0  0
    0.0000    0.0000    0.0000 C   0  0  0  0  0  0  0  0  0  0  0  0
    0.0000    0.0000    0.0000 C   0  0  0  0  0  0  0  0  0  0  0  0
    0.0000    0.0000    0.0000 C   0  0  0  0  0  0  0  0  0  0  0  0
    0.0000    0.0000    0.0000 C   0  0  0  0  0  0  0  0  0  0  0  0
    0.0000    0.0000    0.0000 C   0  0  0  0  0  0  0  0  0  0  0  0
    0.0000    0.0000    0.0000 C   0  0  0  0  0  0  0  0  0  0  0  0
    0.0000    0.0000    0.0000 C   0  0  0  0  0  0  0  0  0  0  0  0
    0.0000    0.0000    0.0000 C   0  0  0  0  0  0  0  0  0  0  0  0
    0.0000    0.0000    0.0000 C   0  0  0  0  0  0  0  0  0  0  0  0
    0.0000    0.0000    0.0000 C   0  0  0  0  0  0  0  0  0  0  0  0
    0.0000    0.0000    0.0000 C   0  0  0  0  0  0  0  0  0  0  0  0
    0.0000    0.0000    0.0000 C   0  0  0  0  0  0  0  0  0  0  0  0
    0.0000    0.0000    0.0000 C   0  0  0  0  0  0  0  0  0  0  0  0
    0.0000    0.0000    0.0000 C   0  0  0  0  0  0  0  0  0  0  0  0
    0.0000    0.0000    0.0000 C   0  0  0  0  0  0  0  0  0  0  0  0
    0.0000    0.0000    0.0000 F   0  0  0  0  0  0  0  0  0  0  0  0
    0.0000    0.0000    0.0000 C   0  0  0  0  0  0  0  0  0  0  0  0
    0.0000    0.0000    0.0000 C   0  0  0  0  0  0  0  0  0  0  0  0
  1  2  1  0
  2  3  2  0
  3  4  1  0
  4  5  2  0
  5  6  1  0
  6  7  2  0
  5  8  1  0
  8  9  1  0
  9 10  1  0
 10 11  1  0
 11 12  1  0
 12 13  1  0
 13 14  1  0
 14 15  1  0
 15 16  1  0
 16 17  1  0
 17 18  1  0
 18 19  1  0
 19 20  2  0
 20 21  1  0
 21 22  2  0
 22 23  1  0
 23 24  2  0
 15 25  1  0
 25 26  1  0
  8 27  1  0
 27 28  2  0
 28 29  1  0
 29 30  2  0
 30 31  1  0
 30 32  1  0
 32 33  2  0
  7  2  1  0
 26 12  1  0
 24 19  1  0
 33 27  1  0
M  END
>  <pIC50>  (191) 
5.45

>  <ChEMBL_ID>  (191) 
CHEMBL543876

>  <document_journal>  (191) 
J. Med. Chem.

>  <bao_endpoint>  (191) 
BAO_0000190

>  <potential_duplicate>  (191) 
False

>  <uo_units>  (191) 
UO_0000065

>  <canonical_smiles>  (191) 
Cl.Cl.Fc1ccc(cc1)C(OCCN2CCN(CCCc3ccccc3)CC2)c4ccc(F)cc4

>  <parent_molecule_chembl_id>  (191) 
CHEMBL281594

>  <assay_type>  (191) 
B

>  <src_id>  (191) 
1

>  <ligand_efficiency>  (191) 
{u'le': u'0.23', u'bei': u'12.1', u'sei': u'34.71', u'lle': u'-0.66'}

>  <standard_flag>  (191) 
True

>  <molecule_chembl_id>  (191) 
CHEMBL543876

>  <target_organism>  (191) 
Homo sapiens

>  <standard_units>  (191) 
nM

>  <record_id>  (191) 
216621

>  <document_chembl_id>  (191) 
CHEMBL1134625

>  <bao_format>  (191) 
BAO_0000357

>  <data_validity_description>  (191) 
None

>  <activity_id>  (191) 
956450

>  <standard_type>  (191) 
IC50

>  <target_chembl_id>  (191) 
CHEMBL233

>  <data_validity_comment>  (191) 
None

>  <published_value>  (191) 
3530

>  <document_year>  (191) 
2001

>  <target_pref_name>  (191) 
Mu opioid receptor

>  <assay_chembl_id>  (191) 
CHEMBL755357

>  <standard_relation>  (191) 
=

>  <assay_description>  (191) 
Binding affinity against mu opioid receptor using [3H]DAMGO

>  <published_relation>  (191) 
=

>  <standard_value>  (191) 
3530

>  <qudt_units>  (191) 
http://www.openphacts.org/units/Nanomolar

>  <target_tax_id>  (191) 
9606

>  <bao_label>  (191) 
single protein format

>  <published_units>  (191) 
nM

>  <pchembl_value>  (191) 
5.45

>  <published_type>  (191) 
IC50

>  <activity_comment>  (191) 
None

$$$$

     RDKit          

 33 36  0  0  0  0  0  0  0  0999 V2000
    0.0000    0.0000    0.0000 F   0  0  0  0  0  0  0  0  0  0  0  0
    0.0000    0.0000    0.0000 C   0  0  0  0  0  0  0  0  0  0  0  0
    0.0000    0.0000    0.0000 C   0  0  0  0  0  0  0  0  0  0  0  0
    0.0000    0.0000    0.0000 C   0  0  0  0  0  0  0  0  0  0  0  0
    0.0000    0.0000    0.0000 C   0  0  0  0  0  0  0  0  0  0  0  0
    0.0000    0.0000    0.0000 C   0  0  0  0  0  0  0  0  0  0  0  0
    0.0000    0.0000    0.0000 C   0  0  0  0  0  0  0  0  0  0  0  0
    0.0000    0.0000    0.0000 C   0  0  0  0  0  0  0  0  0  0  0  0
    0.0000    0.0000    0.0000 O   0  0  0  0  0  0  0  0  0  0  0  0
    0.0000    0.0000    0.0000 C   0  0  0  0  0  0  0  0  0  0  0  0
    0.0000    0.0000    0.0000 C   0  0  0  0  0  0  0  0  0  0  0  0
    0.0000    0.0000    0.0000 N   0  0  0  0  0  0  0  0  0  0  0  0
    0.0000    0.0000    0.0000 C   0  0  0  0  0  0  0  0  0  0  0  0
    0.0000    0.0000    0.0000 C   0  0  0  0  0  0  0  0  0  0  0  0
    0.0000    0.0000    0.0000 N   0  0  0  0  0  0  0  0  0  0  0  0
    0.0000    0.0000    0.0000 C   0  0  0  0  0  0  0  0  0  0  0  0
    0.0000    0.0000    0.0000 C   0  0  0  0  0  0  0  0  0  0  0  0
    0.0000    0.0000    0.0000 C   0  0  0  0  0  0  0  0  0  0  0  0
    0.0000    0.0000    0.0000 C   0  0  0  0  0  0  0  0  0  0  0  0
    0.0000    0.0000    0.0000 C   0  0  0  0  0  0  0  0  0  0  0  0
    0.0000    0.0000    0.0000 C   0  0  0  0  0  0  0  0  0  0  0  0
    0.0000    0.0000    0.0000 C   0  0  0  0  0  0  0  0  0  0  0  0
    0.0000    0.0000    0.0000 C   0  0  0  0  0  0  0  0  0  0  0  0
    0.0000    0.0000    0.0000 C   0  0  0  0  0  0  0  0  0  0  0  0
    0.0000    0.0000    0.0000 C   0  0  0  0  0  0  0  0  0  0  0  0
    0.0000    0.0000    0.0000 C   0  0  0  0  0  0  0  0  0  0  0  0
    0.0000    0.0000    0.0000 C   0  0  0  0  0  0  0  0  0  0  0  0
    0.0000    0.0000    0.0000 C   0  0  0  0  0  0  0  0  0  0  0  0
    0.0000    0.0000    0.0000 C   0  0  0  0  0  0  0  0  0  0  0  0
    0.0000    0.0000    0.0000 C   0  0  0  0  0  0  0  0  0  0  0  0
    0.0000    0.0000    0.0000 F   0  0  0  0  0  0  0  0  0  0  0  0
    0.0000    0.0000    0.0000 C   0  0  0  0  0  0  0  0  0  0  0  0
    0.0000    0.0000    0.0000 C   0  0  0  0  0  0  0  0  0  0  0  0
  1  2  1  0
  2  3  2  0
  3  4  1  0
  4  5  2  0
  5  6  1  0
  6  7  2  0
  5  8  1  0
  8  9  1  0
  9 10  1  0
 10 11  1  0
 11 12  1  0
 12 13  1  0
 13 14  1  0
 14 15  1  0
 15 16  1  0
 16 17  1  0
 17 18  2  0
 18 19  1  0
 19 20  2  0
 20 21  1  0
 21 22  2  0
 22 23  1  0
 23 24  2  0
 15 25  1  0
 25 26  1  0
  8 27  1  0
 27 28  2  0
 28 29  1  0
 29 30  2  0
 30 31  1  0
 30 32  1  0
 32 33  2  0
  7  2  1  0
 26 12  1  0
 24 19  1  0
 33 27  1  0
M  END
>  <pIC50>  (192) 
5.57

>  <ChEMBL_ID>  (192) 
CHEMBL3215749

>  <document_journal>  (192) 
J. Med. Chem.

>  <bao_endpoint>  (192) 
BAO_0000190

>  <potential_duplicate>  (192) 
False

>  <uo_units>  (192) 
UO_0000065

>  <canonical_smiles>  (192) 
Cl.Cl.Fc1ccc(cc1)C(OCCN2CCN(C\C=C\c3ccccc3)CC2)c4ccc(F)cc4

>  <parent_molecule_chembl_id>  (192) 
CHEMBL286991

>  <assay_type>  (192) 
B

>  <src_id>  (192) 
1

>  <ligand_efficiency>  (192) 
{u'le': u'0.23', u'bei': u'12.42', u'sei': u'35.46', u'lle': u'-0.23'}

>  <standard_flag>  (192) 
True

>  <molecule_chembl_id>  (192) 
CHEMBL3215749

>  <target_organism>  (192) 
Homo sapiens

>  <standard_units>  (192) 
nM

>  <record_id>  (192) 
216622

>  <document_chembl_id>  (192) 
CHEMBL1134625

>  <bao_format>  (192) 
BAO_0000357

>  <data_validity_description>  (192) 
None

>  <activity_id>  (192) 
957691

>  <standard_type>  (192) 
IC50

>  <target_chembl_id>  (192) 
CHEMBL233

>  <data_validity_comment>  (192) 
None

>  <published_value>  (192) 
2690

>  <document_year>  (192) 
2001

>  <target_pref_name>  (192) 
Mu opioid receptor

>  <assay_chembl_id>  (192) 
CHEMBL755357

>  <standard_relation>  (192) 
=

>  <assay_description>  (192) 
Binding affinity against mu opioid receptor using [3H]DAMGO

>  <published_relation>  (192) 
=

>  <standard_value>  (192) 
2690

>  <qudt_units>  (192) 
http://www.openphacts.org/units/Nanomolar

>  <target_tax_id>  (192) 
9606

>  <bao_label>  (192) 
single protein format

>  <published_units>  (192) 
nM

>  <pchembl_value>  (192) 
5.57

>  <published_type>  (192) 
IC50

>  <activity_comment>  (192) 
None

$$$$

     RDKit          

 28 30  0  0  0  0  0  0  0  0999 V2000
    0.0000    0.0000    0.0000 O   0  0  0  0  0  0  0  0  0  0  0  0
    0.0000    0.0000    0.0000 C   0  0  0  0  0  0  0  0  0  0  0  0
    0.0000    0.0000    0.0000 O   0  0  0  0  0  0  0  0  0  0  0  0
    0.0000    0.0000    0.0000 C   0  0  0  0  0  0  0  0  0  0  0  0
    0.0000    0.0000    0.0000 C   0  0  0  0  0  0  0  0  0  0  0  0
    0.0000    0.0000    0.0000 C   0  0  0  0  0  0  0  0  0  0  0  0
    0.0000    0.0000    0.0000 C   0  0  0  0  0  0  0  0  0  0  0  0
    0.0000    0.0000    0.0000 C   0  0  0  0  0  0  0  0  0  0  0  0
    0.0000    0.0000    0.0000 C   0  0  0  0  0  0  0  0  0  0  0  0
    0.0000    0.0000    0.0000 C   0  0  0  0  0  0  0  0  0  0  0  0
    0.0000    0.0000    0.0000 C   0  0  0  0  0  0  0  0  0  0  0  0
    0.0000    0.0000    0.0000 C   0  0  0  0  0  0  0  0  0  0  0  0
    0.0000    0.0000    0.0000 N   0  0  0  0  0  0  0  0  0  0  0  0
    0.0000    0.0000    0.0000 N   0  0  0  0  0  0  0  0  0  0  0  0
    0.0000    0.0000    0.0000 C   0  0  0  0  0  0  0  0  0  0  0  0
    0.0000    0.0000    0.0000 C   0  0  0  0  0  0  0  0  0  0  0  0
    0.0000    0.0000    0.0000 N   0  0  0  0  0  0  0  0  0  0  0  0
    0.0000    0.0000    0.0000 C   0  0  0  0  0  0  0  0  0  0  0  0
    0.0000    0.0000    0.0000 C   0  0  0  0  0  0  0  0  0  0  0  0
    0.0000    0.0000    0.0000 C   0  0  0  0  0  0  0  0  0  0  0  0
    0.0000    0.0000    0.0000 C   0  0  0  0  0  0  0  0  0  0  0  0
    0.0000    0.0000    0.0000 C   0  0  0  0  0  0  0  0  0  0  0  0
    0.0000    0.0000    0.0000 C   0  0  0  0  0  0  0  0  0  0  0  0
    0.0000    0.0000    0.0000 C   0  0  0  0  0  0  0  0  0  0  0  0
    0.0000    0.0000    0.0000 C   0  0  0  0  0  0  0  0  0  0  0  0
    0.0000    0.0000    0.0000 C   0  0  0  0  0  0  0  0  0  0  0  0
    0.0000    0.0000    0.0000 C   0  0  0  0  0  0  0  0  0  0  0  0
    0.0000    0.0000    0.0000 C   0  0  0  0  0  0  0  0  0  0  0  0
  1  2  2  0
  2  3  1  0
  3  4  1  0
  4  5  1  0
  5  6  1  0
  6  7  2  0
  7  8  1  0
  8  9  2  0
  9 10  1  0
 10 11  2  0
  9 12  1  0
 12 13  3  0
  2 14  1  0
 14 15  1  0
 15 16  1  0
 16 17  1  0
 17 18  1  0
 18 19  1  0
 19 20  2  0
 20 21  1  0
 21 22  2  0
 22 23  1  0
 23 24  2  0
 24 25  1  0
 25 26  2  0
 17 27  1  0
 27 28  1  0
 11  6  1  0
 28 14  1  0
 26 21  1  0
M  END
>  <pIC50>  (193) 
6.71

>  <ChEMBL_ID>  (193) 
CHEMBL115709

>  <document_journal>  (193) 
J. Med. Chem.

>  <bao_endpoint>  (193) 
BAO_0000190

>  <potential_duplicate>  (193) 
False

>  <uo_units>  (193) 
UO_0000065

>  <canonical_smiles>  (193) 
O=C(OCCc1ccc(cc1)C#N)N2CCN(C\C=C\c3ccccc3)CC2

>  <parent_molecule_chembl_id>  (193) 
CHEMBL115709

>  <assay_type>  (193) 
B

>  <src_id>  (193) 
1

>  <ligand_efficiency>  (193) 
{u'le': u'0.33', u'bei': u'17.86', u'sei': u'11.85', u'lle': u'2.69'}

>  <standard_flag>  (193) 
True

>  <molecule_chembl_id>  (193) 
CHEMBL115709

>  <target_organism>  (193) 
Homo sapiens

>  <standard_units>  (193) 
nM

>  <record_id>  (193) 
216614

>  <document_chembl_id>  (193) 
CHEMBL1134625

>  <bao_format>  (193) 
BAO_0000357

>  <data_validity_description>  (193) 
None

>  <activity_id>  (193) 
960146

>  <standard_type>  (193) 
IC50

>  <target_chembl_id>  (193) 
CHEMBL233

>  <data_validity_comment>  (193) 
None

>  <published_value>  (193) 
197

>  <document_year>  (193) 
2001

>  <target_pref_name>  (193) 
Mu opioid receptor

>  <assay_chembl_id>  (193) 
CHEMBL757059

>  <standard_relation>  (193) 
=

>  <assay_description>  (193) 
Binding affinity against mu opiate receptor

>  <published_relation>  (193) 
=

>  <standard_value>  (193) 
197

>  <qudt_units>  (193) 
http://www.openphacts.org/units/Nanomolar

>  <target_tax_id>  (193) 
9606

>  <bao_label>  (193) 
single protein format

>  <published_units>  (193) 
nM

>  <pchembl_value>  (193) 
6.71

>  <published_type>  (193) 
IC50

>  <activity_comment>  (193) 
None

$$$$

     RDKit          

 38 41  0  0  0  0  0  0  0  0999 V2000
    0.0000    0.0000    0.0000 C   0  0  0  0  0  0  0  0  0  0  0  0
    0.0000    0.0000    0.0000 C   0  0  0  0  0  0  0  0  0  0  0  0
    0.0000    0.0000    0.0000 O   0  0  0  0  0  0  0  0  0  0  0  0
    0.0000    0.0000    0.0000 C   0  0  0  0  0  0  0  0  0  0  0  0
    0.0000    0.0000    0.0000 C   0  0  0  0  0  0  0  0  0  0  0  0
    0.0000    0.0000    0.0000 C   0  0  0  0  0  0  0  0  0  0  0  0
    0.0000    0.0000    0.0000 C   0  0  0  0  0  0  0  0  0  0  0  0
    0.0000    0.0000    0.0000 C   0  0  0  0  0  0  0  0  0  0  0  0
    0.0000    0.0000    0.0000 C   0  0  0  0  0  0  0  0  0  0  0  0
    0.0000    0.0000    0.0000 N   0  0  0  0  0  0  0  0  0  0  0  0
    0.0000    0.0000    0.0000 C   0  0  0  0  0  0  0  0  0  0  0  0
    0.0000    0.0000    0.0000 O   0  0  0  0  0  0  0  0  0  0  0  0
    0.0000    0.0000    0.0000 N   0  0  0  0  0  0  0  0  0  0  0  0
    0.0000    0.0000    0.0000 C   0  0  0  0  0  0  0  0  0  0  0  0
    0.0000    0.0000    0.0000 C   0  0  0  0  0  0  0  0  0  0  0  0
    0.0000    0.0000    0.0000 N   0  0  0  0  0  0  0  0  0  0  0  0
    0.0000    0.0000    0.0000 C   0  0  0  0  0  0  0  0  0  0  0  0
    0.0000    0.0000    0.0000 C   0  0  0  0  0  0  0  0  0  0  0  0
    0.0000    0.0000    0.0000 C   0  0  0  0  0  0  0  0  0  0  0  0
    0.0000    0.0000    0.0000 C   0  0  0  0  0  0  0  0  0  0  0  0
    0.0000    0.0000    0.0000 C   0  0  0  0  0  0  0  0  0  0  0  0
    0.0000    0.0000    0.0000 C   0  0  0  0  0  0  0  0  0  0  0  0
    0.0000    0.0000    0.0000 C   0  0  0  0  0  0  0  0  0  0  0  0
    0.0000    0.0000    0.0000 C   0  0  0  0  0  0  0  0  0  0  0  0
    0.0000    0.0000    0.0000 F   0  0  0  0  0  0  0  0  0  0  0  0
    0.0000    0.0000    0.0000 C   0  0  0  0  0  0  0  0  0  0  0  0
    0.0000    0.0000    0.0000 C   0  0  0  0  0  0  0  0  0  0  0  0
    0.0000    0.0000    0.0000 C   0  0  0  0  0  0  0  0  0  0  0  0
    0.0000    0.0000    0.0000 C   0  0  0  0  0  0  0  0  0  0  0  0
    0.0000    0.0000    0.0000 C   0  0  0  0  0  0  0  0  0  0  0  0
    0.0000    0.0000    0.0000 C   0  0  0  0  0  0  0  0  0  0  0  0
    0.0000    0.0000    0.0000 F   0  0  0  0  0  0  0  0  0  0  0  0
    0.0000    0.0000    0.0000 C   0  0  0  0  0  0  0  0  0  0  0  0
    0.0000    0.0000    0.0000 C   0  0  0  0  0  0  0  0  0  0  0  0
    0.0000    0.0000    0.0000 C   0  0  0  0  0  0  0  0  0  0  0  0
    0.0000    0.0000    0.0000 C   0  0  0  0  0  0  0  0  0  0  0  0
    0.0000    0.0000    0.0000 C   0  0  0  0  0  0  0  0  0  0  0  0
    0.0000    0.0000    0.0000 C   0  0  0  0  0  0  0  0  0  0  0  0
  1  2  1  0
  2  3  1  0
  3  4  1  0
  4  5  2  0
  5  6  1  0
  6  7  2  0
  7  8  1  0
  8  9  1  0
  9 10  1  0
 10 11  1  0
 11 12  2  0
 11 13  1  0
 13 14  1  0
 14 15  1  0
 15 16  1  0
 16 17  1  0
 17 18  1  0
 18 19  1  0
 19 20  1  0
 20 21  1  0
 21 22  2  0
 22 23  1  0
 23 24  2  0
 24 25  1  0
 24 26  1  0
 26 27  2  0
 20 28  1  0
 28 29  2  0
 29 30  1  0
 30 31  2  0
 31 32  1  0
 31 33  1  0
 33 34  2  0
 16 35  1  0
 35 36  1  0
  7 37  1  0
 37 38  2  0
 38  4  1  0
 36 13  1  0
 27 21  1  0
 34 28  1  0
M  END
>  <pIC50>  (194) 
5.34

>  <ChEMBL_ID>  (194) 
CHEMBL113956

>  <document_journal>  (194) 
J. Med. Chem.

>  <bao_endpoint>  (194) 
BAO_0000190

>  <potential_duplicate>  (194) 
False

>  <uo_units>  (194) 
UO_0000065

>  <canonical_smiles>  (194) 
CCOc1ccc(CCNC(=O)N2CCN(CCCC(c3ccc(F)cc3)c4ccc(F)cc4)CC2)cc1

>  <parent_molecule_chembl_id>  (194) 
CHEMBL113956

>  <assay_type>  (194) 
B

>  <src_id>  (194) 
1

>  <ligand_efficiency>  (194) 
{u'le': u'0.19', u'bei': u'10.24', u'sei': u'11.92', u'lle': u'-0.94'}

>  <standard_flag>  (194) 
True

>  <molecule_chembl_id>  (194) 
CHEMBL113956

>  <target_organism>  (194) 
Homo sapiens

>  <standard_units>  (194) 
nM

>  <record_id>  (194) 
216612

>  <document_chembl_id>  (194) 
CHEMBL1134625

>  <bao_format>  (194) 
BAO_0000357

>  <data_validity_description>  (194) 
None

>  <activity_id>  (194) 
960147

>  <standard_type>  (194) 
IC50

>  <target_chembl_id>  (194) 
CHEMBL233

>  <data_validity_comment>  (194) 
None

>  <published_value>  (194) 
4545

>  <document_year>  (194) 
2001

>  <target_pref_name>  (194) 
Mu opioid receptor

>  <assay_chembl_id>  (194) 
CHEMBL757059

>  <standard_relation>  (194) 
=

>  <assay_description>  (194) 
Binding affinity against mu opiate receptor

>  <published_relation>  (194) 
=

>  <standard_value>  (194) 
4545

>  <qudt_units>  (194) 
http://www.openphacts.org/units/Nanomolar

>  <target_tax_id>  (194) 
9606

>  <bao_label>  (194) 
single protein format

>  <published_units>  (194) 
nM

>  <pchembl_value>  (194) 
5.34

>  <published_type>  (194) 
IC50

>  <activity_comment>  (194) 
None

$$$$

     RDKit          

 35 38  0  0  0  0  0  0  0  0999 V2000
    0.0000    0.0000    0.0000 F   0  0  0  0  0  0  0  0  0  0  0  0
    0.0000    0.0000    0.0000 C   0  0  0  0  0  0  0  0  0  0  0  0
    0.0000    0.0000    0.0000 C   0  0  0  0  0  0  0  0  0  0  0  0
    0.0000    0.0000    0.0000 C   0  0  0  0  0  0  0  0  0  0  0  0
    0.0000    0.0000    0.0000 C   0  0  0  0  0  0  0  0  0  0  0  0
    0.0000    0.0000    0.0000 C   0  0  0  0  0  0  0  0  0  0  0  0
    0.0000    0.0000    0.0000 C   0  0  0  0  0  0  0  0  0  0  0  0
    0.0000    0.0000    0.0000 C   0  0  0  0  0  0  0  0  0  0  0  0
    0.0000    0.0000    0.0000 C   0  0  0  0  0  0  0  0  0  0  0  0
    0.0000    0.0000    0.0000 C   0  0  0  0  0  0  0  0  0  0  0  0
    0.0000    0.0000    0.0000 C   0  0  0  0  0  0  0  0  0  0  0  0
    0.0000    0.0000    0.0000 N   0  0  0  0  0  0  0  0  0  0  0  0
    0.0000    0.0000    0.0000 C   0  0  0  0  0  0  0  0  0  0  0  0
    0.0000    0.0000    0.0000 C   0  0  0  0  0  0  0  0  0  0  0  0
    0.0000    0.0000    0.0000 N   0  0  0  0  0  0  0  0  0  0  0  0
    0.0000    0.0000    0.0000 C   0  0  0  0  0  0  0  0  0  0  0  0
    0.0000    0.0000    0.0000 C   0  0  0  0  0  0  0  0  0  0  0  0
    0.0000    0.0000    0.0000 C   0  0  0  0  0  0  0  0  0  0  0  0
    0.0000    0.0000    0.0000 O   0  0  0  0  0  0  0  0  0  0  0  0
    0.0000    0.0000    0.0000 C   0  0  0  0  0  0  0  0  0  0  0  0
    0.0000    0.0000    0.0000 C   0  0  0  0  0  0  0  0  0  0  0  0
    0.0000    0.0000    0.0000 C   0  0  0  0  0  0  0  0  0  0  0  0
    0.0000    0.0000    0.0000 C   0  0  0  0  0  0  0  0  0  0  0  0
    0.0000    0.0000    0.0000 C   0  0  0  0  0  0  0  0  0  0  0  0
    0.0000    0.0000    0.0000 C   0  0  0  0  0  0  0  0  0  0  0  0
    0.0000    0.0000    0.0000 C   0  0  0  0  0  0  0  0  0  0  0  0
    0.0000    0.0000    0.0000 C   0  0  0  0  0  0  0  0  0  0  0  0
    0.0000    0.0000    0.0000 C   0  0  0  0  0  0  0  0  0  0  0  0
    0.0000    0.0000    0.0000 C   0  0  0  0  0  0  0  0  0  0  0  0
    0.0000    0.0000    0.0000 C   0  0  0  0  0  0  0  0  0  0  0  0
    0.0000    0.0000    0.0000 C   0  0  0  0  0  0  0  0  0  0  0  0
    0.0000    0.0000    0.0000 C   0  0  0  0  0  0  0  0  0  0  0  0
    0.0000    0.0000    0.0000 F   0  0  0  0  0  0  0  0  0  0  0  0
    0.0000    0.0000    0.0000 C   0  0  0  0  0  0  0  0  0  0  0  0
    0.0000    0.0000    0.0000 C   0  0  0  0  0  0  0  0  0  0  0  0
  1  2  1  0
  2  3  2  0
  3  4  1  0
  4  5  2  0
  5  6  1  0
  6  7  2  0
  5  8  1  0
  8  9  1  0
  9 10  1  0
 10 11  1  0
 11 12  1  0
 12 13  1  0
 13 14  1  0
 14 15  1  0
 15 16  1  0
 16 17  1  0
 15 18  1  0
 18 19  2  0
 18 20  1  0
 20 21  1  0
 21 22  1  0
 22 23  1  0
 23 24  2  0
 24 25  1  0
 25 26  2  0
 26 27  1  0
 27 28  2  0
  8 29  1  0
 29 30  2  0
 30 31  1  0
 31 32  2  0
 32 33  1  0
 32 34  1  0
 34 35  2  0
  7  2  1  0
 17 12  1  0
 28 23  1  0
 35 29  1  0
M  END
>  <pIC50>  (195) 
5.42

>  <ChEMBL_ID>  (195) 
CHEMBL117537

>  <document_journal>  (195) 
J. Med. Chem.

>  <bao_endpoint>  (195) 
BAO_0000190

>  <potential_duplicate>  (195) 
False

>  <uo_units>  (195) 
UO_0000065

>  <canonical_smiles>  (195) 
Fc1ccc(cc1)C(CCCN2CCN(CC2)C(=O)CCCc3ccccc3)c4ccc(F)cc4

>  <parent_molecule_chembl_id>  (195) 
CHEMBL117537

>  <assay_type>  (195) 
B

>  <src_id>  (195) 
1

>  <ligand_efficiency>  (195) 
{u'le': u'0.21', u'bei': u'11.37', u'sei': u'23.01', u'lle': u'-1.24'}

>  <standard_flag>  (195) 
True

>  <molecule_chembl_id>  (195) 
CHEMBL117537

>  <target_organism>  (195) 
Homo sapiens

>  <standard_units>  (195) 
nM

>  <record_id>  (195) 
216611

>  <document_chembl_id>  (195) 
CHEMBL1134625

>  <bao_format>  (195) 
BAO_0000357

>  <data_validity_description>  (195) 
None

>  <activity_id>  (195) 
969070

>  <standard_type>  (195) 
IC50

>  <target_chembl_id>  (195) 
CHEMBL233

>  <data_validity_comment>  (195) 
None

>  <published_value>  (195) 
3810

>  <document_year>  (195) 
2001

>  <target_pref_name>  (195) 
Mu opioid receptor

>  <assay_chembl_id>  (195) 
CHEMBL757059

>  <standard_relation>  (195) 
=

>  <assay_description>  (195) 
Binding affinity against mu opiate receptor

>  <published_relation>  (195) 
=

>  <standard_value>  (195) 
3810

>  <qudt_units>  (195) 
http://www.openphacts.org/units/Nanomolar

>  <target_tax_id>  (195) 
9606

>  <bao_label>  (195) 
single protein format

>  <published_units>  (195) 
nM

>  <pchembl_value>  (195) 
5.42

>  <published_type>  (195) 
IC50

>  <activity_comment>  (195) 
None

$$$$

     RDKit          

 37 41  0  0  0  0  0  0  0  0999 V2000
    0.0000    0.0000    0.0000 C   0  0  0  0  0  0  0  0  0  0  0  0
    0.0000    0.0000    0.0000 O   0  0  0  0  0  0  0  0  0  0  0  0
    0.0000    0.0000    0.0000 C   0  0  0  0  0  0  0  0  0  0  0  0
    0.0000    0.0000    0.0000 C   0  0  0  0  0  0  0  0  0  0  0  0
    0.0000    0.0000    0.0000 C   0  0  0  0  0  0  0  0  0  0  0  0
    0.0000    0.0000    0.0000 C   0  0  0  0  0  0  0  0  0  0  0  0
    0.0000    0.0000    0.0000 C   0  0  0  0  0  0  0  0  0  0  0  0
    0.0000    0.0000    0.0000 N   0  0  0  0  0  0  0  0  0  0  0  0
    0.0000    0.0000    0.0000 C   0  0  0  0  0  0  0  0  0  0  0  0
    0.0000    0.0000    0.0000 C   0  0  0  0  0  0  0  0  0  0  0  0
    0.0000    0.0000    0.0000 N   0  0  0  0  0  0  0  0  0  0  0  0
    0.0000    0.0000    0.0000 C   0  0  0  0  0  0  0  0  0  0  0  0
    0.0000    0.0000    0.0000 C   0  0  0  0  0  0  0  0  0  0  0  0
    0.0000    0.0000    0.0000 C   0  0  0  0  0  0  0  0  0  0  0  0
    0.0000    0.0000    0.0000 O   0  0  0  0  0  0  0  0  0  0  0  0
    0.0000    0.0000    0.0000 C   0  0  0  0  0  0  0  0  0  0  0  0
    0.0000    0.0000    0.0000 C   0  0  0  0  0  0  0  0  0  0  0  0
    0.0000    0.0000    0.0000 N   0  0  0  0  0  0  0  0  0  0  0  0
    0.0000    0.0000    0.0000 C   0  0  0  0  0  0  0  0  0  0  0  0
    0.0000    0.0000    0.0000 C   0  0  0  0  0  0  0  0  0  0  0  0
    0.0000    0.0000    0.0000 C   0  0  0  0  0  0  0  0  0  0  0  0
    0.0000    0.0000    0.0000 C   0  0  0  0  0  0  0  0  0  0  0  0
    0.0000    0.0000    0.0000 C   0  0  0  0  0  0  0  0  0  0  0  0
    0.0000    0.0000    0.0000 C   0  0  0  0  0  0  0  0  0  0  0  0
    0.0000    0.0000    0.0000 C   0  0  0  0  0  0  0  0  0  0  0  0
    0.0000    0.0000    0.0000 C   0  0  0  0  0  0  0  0  0  0  0  0
    0.0000    0.0000    0.0000 C   0  0  0  0  0  0  0  0  0  0  0  0
    0.0000    0.0000    0.0000 C   0  0  0  0  0  0  0  0  0  0  0  0
    0.0000    0.0000    0.0000 C   0  0  0  0  0  0  0  0  0  0  0  0
    0.0000    0.0000    0.0000 O   0  0  0  0  0  0  0  0  0  0  0  0
    0.0000    0.0000    0.0000 C   0  0  0  0  0  0  0  0  0  0  0  0
    0.0000    0.0000    0.0000 C   0  0  0  0  0  0  0  0  0  0  0  0
    0.0000    0.0000    0.0000 C   0  0  0  0  0  0  0  0  0  0  0  0
    0.0000    0.0000    0.0000 C   0  0  0  0  0  0  0  0  0  0  0  0
    0.0000    0.0000    0.0000 C   0  0  0  0  0  0  0  0  0  0  0  0
    0.0000    0.0000    0.0000 C   0  0  0  0  0  0  0  0  0  0  0  0
    0.0000    0.0000    0.0000 C   0  0  0  0  0  0  0  0  0  0  0  0
  1  2  1  0
  2  3  1  0
  3  4  2  0
  4  5  1  0
  5  6  2  0
  6  7  1  0
  7  8  1  0
  8  9  1  0
  9 10  1  0
 10 11  1  0
 11 12  1  0
 12 13  1  0
 11 14  1  0
 14 15  2  0
 14 16  1  0
 16 17  1  0
 17 18  1  0
 18 19  1  0
 19 20  2  0
 20 21  1  0
 20 22  1  0
 22 23  2  0
 23 24  1  0
 24 25  2  0
 25 26  1  0
 26 27  2  0
  6 28  1  0
 28 29  2  0
 29 30  1  0
 30 31  1  0
 31 32  1  0
 32 33  2  0
 33 34  1  0
 34 35  2  0
 35 36  1  0
 36 37  2  0
 29  3  1  0
 13  8  1  0
 27 18  1  0
 27 22  1  0
 37 32  1  0
M  END
>  <pIC50>  (196) 
5.4

>  <ChEMBL_ID>  (196) 
CHEMBL420499

>  <document_journal>  (196) 
J. Med. Chem.

>  <bao_endpoint>  (196) 
BAO_0000190

>  <potential_duplicate>  (196) 
False

>  <uo_units>  (196) 
UO_0000065

>  <canonical_smiles>  (196) 
COc1ccc(CN2CCN(CC2)C(=O)CCn3cc(C)c4ccccc34)cc1OCc5ccccc5

>  <parent_molecule_chembl_id>  (196) 
CHEMBL420499

>  <assay_type>  (196) 
B

>  <src_id>  (196) 
1

>  <ligand_efficiency>  (196) 
{u'le': u'0.2', u'bei': u'10.86', u'sei': u'11.51', u'lle': u'-0.02'}

>  <standard_flag>  (196) 
True

>  <molecule_chembl_id>  (196) 
CHEMBL420499

>  <target_organism>  (196) 
Homo sapiens

>  <standard_units>  (196) 
nM

>  <record_id>  (196) 
216608

>  <document_chembl_id>  (196) 
CHEMBL1134625

>  <bao_format>  (196) 
BAO_0000357

>  <data_validity_description>  (196) 
None

>  <activity_id>  (196) 
971694

>  <standard_type>  (196) 
IC50

>  <target_chembl_id>  (196) 
CHEMBL233

>  <data_validity_comment>  (196) 
None

>  <published_value>  (196) 
3950

>  <document_year>  (196) 
2001

>  <target_pref_name>  (196) 
Mu opioid receptor

>  <assay_chembl_id>  (196) 
CHEMBL757059

>  <standard_relation>  (196) 
=

>  <assay_description>  (196) 
Binding affinity against mu opiate receptor

>  <published_relation>  (196) 
=

>  <standard_value>  (196) 
3950

>  <qudt_units>  (196) 
http://www.openphacts.org/units/Nanomolar

>  <target_tax_id>  (196) 
9606

>  <bao_label>  (196) 
single protein format

>  <published_units>  (196) 
nM

>  <pchembl_value>  (196) 
5.4

>  <published_type>  (196) 
IC50

>  <activity_comment>  (196) 
None

$$$$

     RDKit          

 36 39  0  0  0  0  0  0  0  0999 V2000
    0.0000    0.0000    0.0000 F   0  0  0  0  0  0  0  0  0  0  0  0
    0.0000    0.0000    0.0000 C   0  0  0  0  0  0  0  0  0  0  0  0
    0.0000    0.0000    0.0000 C   0  0  0  0  0  0  0  0  0  0  0  0
    0.0000    0.0000    0.0000 C   0  0  0  0  0  0  0  0  0  0  0  0
    0.0000    0.0000    0.0000 C   0  0  0  0  0  0  0  0  0  0  0  0
    0.0000    0.0000    0.0000 C   0  0  0  0  0  0  0  0  0  0  0  0
    0.0000    0.0000    0.0000 C   0  0  0  0  0  0  0  0  0  0  0  0
    0.0000    0.0000    0.0000 O   0  0  0  0  0  0  0  0  0  0  0  0
    0.0000    0.0000    0.0000 C   0  0  0  0  0  0  0  0  0  0  0  0
    0.0000    0.0000    0.0000 O   0  0  0  0  0  0  0  0  0  0  0  0
    0.0000    0.0000    0.0000 N   0  0  0  0  0  0  0  0  0  0  0  0
    0.0000    0.0000    0.0000 C   0  0  0  0  0  0  0  0  0  0  0  0
    0.0000    0.0000    0.0000 C   0  0  0  0  0  0  0  0  0  0  0  0
    0.0000    0.0000    0.0000 N   0  0  0  0  0  0  0  0  0  0  0  0
    0.0000    0.0000    0.0000 C   0  0  0  0  0  0  0  0  0  0  0  0
    0.0000    0.0000    0.0000 C   0  0  0  0  0  0  0  0  0  0  0  0
    0.0000    0.0000    0.0000 C   0  0  0  0  0  0  0  0  0  0  0  0
    0.0000    0.0000    0.0000 C   0  0  0  0  0  0  0  0  0  0  0  0
    0.0000    0.0000    0.0000 C   0  0  0  0  0  0  0  0  0  0  0  0
    0.0000    0.0000    0.0000 C   0  0  0  0  0  0  0  0  0  0  0  0
    0.0000    0.0000    0.0000 C   0  0  0  0  0  0  0  0  0  0  0  0
    0.0000    0.0000    0.0000 C   0  0  0  0  0  0  0  0  0  0  0  0
    0.0000    0.0000    0.0000 F   0  0  0  0  0  0  0  0  0  0  0  0
    0.0000    0.0000    0.0000 C   0  0  0  0  0  0  0  0  0  0  0  0
    0.0000    0.0000    0.0000 C   0  0  0  0  0  0  0  0  0  0  0  0
    0.0000    0.0000    0.0000 C   0  0  0  0  0  0  0  0  0  0  0  0
    0.0000    0.0000    0.0000 C   0  0  0  0  0  0  0  0  0  0  0  0
    0.0000    0.0000    0.0000 C   0  0  0  0  0  0  0  0  0  0  0  0
    0.0000    0.0000    0.0000 C   0  0  0  0  0  0  0  0  0  0  0  0
    0.0000    0.0000    0.0000 F   0  0  0  0  0  0  0  0  0  0  0  0
    0.0000    0.0000    0.0000 C   0  0  0  0  0  0  0  0  0  0  0  0
    0.0000    0.0000    0.0000 C   0  0  0  0  0  0  0  0  0  0  0  0
    0.0000    0.0000    0.0000 C   0  0  0  0  0  0  0  0  0  0  0  0
    0.0000    0.0000    0.0000 C   0  0  0  0  0  0  0  0  0  0  0  0
    0.0000    0.0000    0.0000 C   0  0  0  0  0  0  0  0  0  0  0  0
    0.0000    0.0000    0.0000 C   0  0  0  0  0  0  0  0  0  0  0  0
  1  2  1  0
  2  3  2  0
  3  4  1  0
  4  5  2  0
  5  6  1  0
  6  7  1  0
  7  8  1  0
  8  9  1  0
  9 10  2  0
  9 11  1  0
 11 12  1  0
 12 13  1  0
 13 14  1  0
 14 15  1  0
 15 16  1  0
 16 17  1  0
 17 18  1  0
 18 19  1  0
 19 20  2  0
 20 21  1  0
 21 22  2  0
 22 23  1  0
 22 24  1  0
 24 25  2  0
 18 26  1  0
 26 27  2  0
 27 28  1  0
 28 29  2  0
 29 30  1  0
 29 31  1  0
 31 32  2  0
 14 33  1  0
 33 34  1  0
  5 35  1  0
 35 36  2  0
 36  2  1  0
 34 11  1  0
 25 19  1  0
 32 26  1  0
M  END
>  <pIC50>  (197) 
5.4

>  <ChEMBL_ID>  (197) 
CHEMBL325516

>  <document_journal>  (197) 
J. Med. Chem.

>  <bao_endpoint>  (197) 
BAO_0000190

>  <potential_duplicate>  (197) 
False

>  <uo_units>  (197) 
UO_0000065

>  <canonical_smiles>  (197) 
Fc1ccc(CCOC(=O)N2CCN(CCCC(c3ccc(F)cc3)c4ccc(F)cc4)CC2)cc1

>  <parent_molecule_chembl_id>  (197) 
CHEMBL325516

>  <assay_type>  (197) 
B

>  <src_id>  (197) 
1

>  <ligand_efficiency>  (197) 
{u'le': u'0.2', u'bei': u'10.87', u'sei': u'16.46', u'lle': u'-1.4'}

>  <standard_flag>  (197) 
True

>  <molecule_chembl_id>  (197) 
CHEMBL325516

>  <target_organism>  (197) 
Homo sapiens

>  <standard_units>  (197) 
nM

>  <record_id>  (197) 
216625

>  <document_chembl_id>  (197) 
CHEMBL1134625

>  <bao_format>  (197) 
BAO_0000357

>  <data_validity_description>  (197) 
None

>  <activity_id>  (197) 
975316

>  <standard_type>  (197) 
IC50

>  <target_chembl_id>  (197) 
CHEMBL233

>  <data_validity_comment>  (197) 
None

>  <published_value>  (197) 
4015

>  <document_year>  (197) 
2001

>  <target_pref_name>  (197) 
Mu opioid receptor

>  <assay_chembl_id>  (197) 
CHEMBL757059

>  <standard_relation>  (197) 
=

>  <assay_description>  (197) 
Binding affinity against mu opiate receptor

>  <published_relation>  (197) 
=

>  <standard_value>  (197) 
4015

>  <qudt_units>  (197) 
http://www.openphacts.org/units/Nanomolar

>  <target_tax_id>  (197) 
9606

>  <bao_label>  (197) 
single protein format

>  <published_units>  (197) 
nM

>  <pchembl_value>  (197) 
5.4

>  <published_type>  (197) 
IC50

>  <activity_comment>  (197) 
None

$$$$

     RDKit          

 28 30  0  0  0  0  0  0  0  0999 V2000
    0.0000    0.0000    0.0000 O   0  0  0  0  0  0  0  0  0  0  0  0
    0.0000    0.0000    0.0000 C   0  0  0  0  0  0  0  0  0  0  0  0
    0.0000    0.0000    0.0000 O   0  0  0  0  0  0  0  0  0  0  0  0
    0.0000    0.0000    0.0000 C   0  0  0  0  0  0  0  0  0  0  0  0
    0.0000    0.0000    0.0000 C   0  0  0  0  0  0  0  0  0  0  0  0
    0.0000    0.0000    0.0000 C   0  0  0  0  0  0  0  0  0  0  0  0
    0.0000    0.0000    0.0000 C   0  0  0  0  0  0  0  0  0  0  0  0
    0.0000    0.0000    0.0000 C   0  0  0  0  0  0  0  0  0  0  0  0
    0.0000    0.0000    0.0000 C   0  0  0  0  0  0  0  0  0  0  0  0
    0.0000    0.0000    0.0000 C   0  0  0  0  0  0  0  0  0  0  0  0
    0.0000    0.0000    0.0000 C   0  0  0  0  0  0  0  0  0  0  0  0
    0.0000    0.0000    0.0000 C   0  0  0  0  0  0  0  0  0  0  0  0
    0.0000    0.0000    0.0000 N   0  0  0  0  0  0  0  0  0  0  0  0
    0.0000    0.0000    0.0000 N   0  0  0  0  0  0  0  0  0  0  0  0
    0.0000    0.0000    0.0000 C   0  0  0  0  0  0  0  0  0  0  0  0
    0.0000    0.0000    0.0000 C   0  0  0  0  0  0  0  0  0  0  0  0
    0.0000    0.0000    0.0000 N   0  0  0  0  0  0  0  0  0  0  0  0
    0.0000    0.0000    0.0000 C   0  0  0  0  0  0  0  0  0  0  0  0
    0.0000    0.0000    0.0000 C   0  0  0  0  0  0  0  0  0  0  0  0
    0.0000    0.0000    0.0000 C   0  0  0  0  0  0  0  0  0  0  0  0
    0.0000    0.0000    0.0000 C   0  0  0  0  0  0  0  0  0  0  0  0
    0.0000    0.0000    0.0000 C   0  0  0  0  0  0  0  0  0  0  0  0
    0.0000    0.0000    0.0000 C   0  0  0  0  0  0  0  0  0  0  0  0
    0.0000    0.0000    0.0000 C   0  0  0  0  0  0  0  0  0  0  0  0
    0.0000    0.0000    0.0000 C   0  0  0  0  0  0  0  0  0  0  0  0
    0.0000    0.0000    0.0000 C   0  0  0  0  0  0  0  0  0  0  0  0
    0.0000    0.0000    0.0000 C   0  0  0  0  0  0  0  0  0  0  0  0
    0.0000    0.0000    0.0000 C   0  0  0  0  0  0  0  0  0  0  0  0
  1  2  2  0
  2  3  1  0
  3  4  1  0
  4  5  1  0
  5  6  1  0
  6  7  2  0
  7  8  1  0
  8  9  2  0
  9 10  1  0
 10 11  2  0
  9 12  1  0
 12 13  3  0
  2 14  1  0
 14 15  1  0
 15 16  1  0
 16 17  1  0
 17 18  1  0
 18 19  1  0
 19 20  1  0
 20 21  1  0
 21 22  2  0
 22 23  1  0
 23 24  2  0
 24 25  1  0
 25 26  2  0
 17 27  1  0
 27 28  1  0
 11  6  1  0
 28 14  1  0
 26 21  1  0
M  END
>  <pIC50>  (198) 
6.1

>  <ChEMBL_ID>  (198) 
CHEMBL325258

>  <document_journal>  (198) 
J. Med. Chem.

>  <bao_endpoint>  (198) 
BAO_0000190

>  <potential_duplicate>  (198) 
False

>  <uo_units>  (198) 
UO_0000065

>  <canonical_smiles>  (198) 
O=C(OCCc1ccc(cc1)C#N)N2CCN(CCCc3ccccc3)CC2

>  <parent_molecule_chembl_id>  (198) 
CHEMBL325258

>  <assay_type>  (198) 
B

>  <src_id>  (198) 
1

>  <ligand_efficiency>  (198) 
{u'le': u'0.3', u'bei': u'16.15', u'sei': u'10.78', u'lle': u'1.78'}

>  <standard_flag>  (198) 
True

>  <molecule_chembl_id>  (198) 
CHEMBL325258

>  <target_organism>  (198) 
Homo sapiens

>  <standard_units>  (198) 
nM

>  <record_id>  (198) 
216615

>  <document_chembl_id>  (198) 
CHEMBL1134625

>  <bao_format>  (198) 
BAO_0000357

>  <data_validity_description>  (198) 
None

>  <activity_id>  (198) 
976541

>  <standard_type>  (198) 
IC50

>  <target_chembl_id>  (198) 
CHEMBL233

>  <data_validity_comment>  (198) 
None

>  <published_value>  (198) 
800

>  <document_year>  (198) 
2001

>  <target_pref_name>  (198) 
Mu opioid receptor

>  <assay_chembl_id>  (198) 
CHEMBL757059

>  <standard_relation>  (198) 
=

>  <assay_description>  (198) 
Binding affinity against mu opiate receptor

>  <published_relation>  (198) 
=

>  <standard_value>  (198) 
800

>  <qudt_units>  (198) 
http://www.openphacts.org/units/Nanomolar

>  <target_tax_id>  (198) 
9606

>  <bao_label>  (198) 
single protein format

>  <published_units>  (198) 
nM

>  <pchembl_value>  (198) 
6.1

>  <published_type>  (198) 
IC50

>  <activity_comment>  (198) 
None

$$$$

     RDKit          

 32 36  0  0  0  0  0  0  0  0999 V2000
    0.0000    0.0000    0.0000 Cl  0  0  0  0  0  0  0  0  0  0  0  0
    0.0000    0.0000    0.0000 C   0  0  0  0  0  0  0  0  0  0  0  0
    0.0000    0.0000    0.0000 C   0  0  0  0  0  0  0  0  0  0  0  0
    0.0000    0.0000    0.0000 C   0  0  0  0  0  0  0  0  0  0  0  0
    0.0000    0.0000    0.0000 O   0  0  0  0  0  0  0  0  0  0  0  0
    0.0000    0.0000    0.0000 C   0  0  0  0  0  0  0  0  0  0  0  0
    0.0000    0.0000    0.0000 O   0  0  0  0  0  0  0  0  0  0  0  0
    0.0000    0.0000    0.0000 C   0  0  0  0  0  0  0  0  0  0  0  0
    0.0000    0.0000    0.0000 C   0  0  0  0  0  0  0  0  0  0  0  0
    0.0000    0.0000    0.0000 C   0  0  0  0  0  0  0  0  0  0  0  0
    0.0000    0.0000    0.0000 C   0  0  0  0  0  0  0  0  0  0  0  0
    0.0000    0.0000    0.0000 O   0  0  0  0  0  0  0  0  0  0  0  0
    0.0000    0.0000    0.0000 C   0  0  0  0  0  0  0  0  0  0  0  0
    0.0000    0.0000    0.0000 O   0  0  0  0  0  0  0  0  0  0  0  0
    0.0000    0.0000    0.0000 N   0  0  0  0  0  0  0  0  0  0  0  0
    0.0000    0.0000    0.0000 C   0  0  0  0  0  0  0  0  0  0  0  0
    0.0000    0.0000    0.0000 C   0  0  0  0  0  0  0  0  0  0  0  0
    0.0000    0.0000    0.0000 C   0  0  0  0  0  0  0  0  0  0  0  0
    0.0000    0.0000    0.0000 C   0  0  0  0  0  0  0  0  0  0  0  0
    0.0000    0.0000    0.0000 C   0  0  0  0  0  0  0  0  0  0  0  0
    0.0000    0.0000    0.0000 N   0  0  0  0  0  0  0  0  0  0  0  0
    0.0000    0.0000    0.0000 C   0  0  0  0  0  0  0  0  0  0  0  0
    0.0000    0.0000    0.0000 O   0  0  0  0  0  0  0  0  0  0  0  0
    0.0000    0.0000    0.0000 C   0  0  0  0  0  0  0  0  0  0  0  0
    0.0000    0.0000    0.0000 O   0  0  0  0  0  0  0  0  0  0  0  0
    0.0000    0.0000    0.0000 N   0  0  0  0  0  0  0  0  0  0  0  0
    0.0000    0.0000    0.0000 C   0  0  0  0  0  0  0  0  0  0  0  0
    0.0000    0.0000    0.0000 C   0  0  0  0  0  0  0  0  0  0  0  0
    0.0000    0.0000    0.0000 C   0  0  0  0  0  0  0  0  0  0  0  0
    0.0000    0.0000    0.0000 C   0  0  0  0  0  0  0  0  0  0  0  0
    0.0000    0.0000    0.0000 C   0  0  0  0  0  0  0  0  0  0  0  0
    0.0000    0.0000    0.0000 C   0  0  0  0  0  0  0  0  0  0  0  0
  1  2  1  0
  2  3  2  0
  3  4  1  0
  4  5  1  0
  5  6  1  0
  6  7  1  0
  7  8  1  0
  8  9  1  0
  9 10  2  0
 10 11  1  0
 11 12  1  0
 12 13  1  0
 13 14  2  0
 13 15  1  0
 15 16  1  0
 16 17  1  0
 17 18  1  0
 18 19  1  0
 19 20  1  0
 18 21  1  0
 21 22  1  0
 22 23  2  0
 22 24  1  0
 24 25  2  0
 24 26  1  0
 26 27  1  0
 27 28  2  0
 28 29  1  0
 29 30  2  0
 30 31  1  0
 31 32  2  0
 10  2  1  0
  8  4  2  0
 20 15  1  0
 32 21  1  0
 32 27  1  0
M  END
>  <pIC50>  (199) 
5.59

>  <ChEMBL_ID>  (199) 
CHEMBL114299

>  <document_journal>  (199) 
J. Med. Chem.

>  <bao_endpoint>  (199) 
BAO_0000190

>  <potential_duplicate>  (199) 
False

>  <uo_units>  (199) 
UO_0000065

>  <canonical_smiles>  (199) 
Clc1cc2OCOc2cc1COC(=O)N3CCC(CC3)N4C(=O)C(=O)Nc5ccccc45

>  <parent_molecule_chembl_id>  (199) 
CHEMBL114299

>  <assay_type>  (199) 
B

>  <src_id>  (199) 
1

>  <ligand_efficiency>  (199) 
{u'le': u'0.24', u'bei': u'12.2', u'sei': u'5.74', u'lle': u'3.3'}

>  <standard_flag>  (199) 
True

>  <molecule_chembl_id>  (199) 
CHEMBL114299

>  <target_organism>  (199) 
Homo sapiens

>  <standard_units>  (199) 
nM

>  <record_id>  (199) 
216586

>  <document_chembl_id>  (199) 
CHEMBL1134625

>  <bao_format>  (199) 
BAO_0000357

>  <data_validity_description>  (199) 
None

>  <activity_id>  (199) 
978909

>  <standard_type>  (199) 
IC50

>  <target_chembl_id>  (199) 
CHEMBL233

>  <data_validity_comment>  (199) 
None

>  <published_value>  (199) 
2590

>  <document_year>  (199) 
2001

>  <target_pref_name>  (199) 
Mu opioid receptor

>  <assay_chembl_id>  (199) 
CHEMBL757059

>  <standard_relation>  (199) 
=

>  <assay_description>  (199) 
Binding affinity against mu opiate receptor

>  <published_relation>  (199) 
=

>  <standard_value>  (199) 
2590

>  <qudt_units>  (199) 
http://www.openphacts.org/units/Nanomolar

>  <target_tax_id>  (199) 
9606

>  <bao_label>  (199) 
single protein format

>  <published_units>  (199) 
nM

>  <pchembl_value>  (199) 
5.59

>  <published_type>  (199) 
IC50

>  <activity_comment>  (199) 
None

$$$$

     RDKit          

 25 28  0  0  0  0  0  0  0  0999 V2000
    0.0000    0.0000    0.0000 O   0  0  0  0  0  0  0  0  0  0  0  0
    0.0000    0.0000    0.0000 C   0  0  0  0  0  0  0  0  0  0  0  0
    0.0000    0.0000    0.0000 N   0  0  0  0  0  0  0  0  0  0  0  0
    0.0000    0.0000    0.0000 N   0  0  0  0  0  0  0  0  0  0  0  0
    0.0000    0.0000    0.0000 C   0  0  0  0  0  0  0  0  0  0  0  0
    0.0000    0.0000    0.0000 C   0  0  0  0  0  0  0  0  0  0  0  0
    0.0000    0.0000    0.0000 C   0  0  0  0  0  0  0  0  0  0  0  0
    0.0000    0.0000    0.0000 C   0  0  0  0  0  0  0  0  0  0  0  0
    0.0000    0.0000    0.0000 C   0  0  0  0  0  0  0  0  0  0  0  0
    0.0000    0.0000    0.0000 C   0  0  0  0  0  0  0  0  0  0  0  0
    0.0000    0.0000    0.0000 C   0  0  0  0  0  0  0  0  0  0  0  0
    0.0000    0.0000    0.0000 C   0  0  0  0  0  0  0  0  0  0  0  0
    0.0000    0.0000    0.0000 C   0  0  0  0  0  0  0  0  0  0  0  0
    0.0000    0.0000    0.0000 C   0  0  0  0  0  0  0  0  0  0  0  0
    0.0000    0.0000    0.0000 N   0  0  0  0  0  0  0  0  0  0  0  0
    0.0000    0.0000    0.0000 C   0  0  0  0  0  0  0  0  0  0  0  0
    0.0000    0.0000    0.0000 C   0  0  0  0  0  0  0  0  0  0  0  0
    0.0000    0.0000    0.0000 C   0  0  0  0  0  0  0  0  0  0  0  0
    0.0000    0.0000    0.0000 C   0  0  0  0  0  0  0  0  0  0  0  0
    0.0000    0.0000    0.0000 C   0  0  0  0  0  0  0  0  0  0  0  0
    0.0000    0.0000    0.0000 C   0  0  0  0  0  0  0  0  0  0  0  0
    0.0000    0.0000    0.0000 Cl  0  0  0  0  0  0  0  0  0  0  0  0
    0.0000    0.0000    0.0000 C   0  0  0  0  0  0  0  0  0  0  0  0
    0.0000    0.0000    0.0000 C   0  0  0  0  0  0  0  0  0  0  0  0
    0.0000    0.0000    0.0000 C   0  0  0  0  0  0  0  0  0  0  0  0
  1  2  2  0
  2  3  1  0
  4  2  1  0
  5  4  1  0
  6  4  1  0
  7  5  1  0
  5  8  1  0
  9  6  1  0
  6 10  2  0
 11  7  1  0
  8 12  1  0
 13  9  2  0
  3 10  1  0
 10 14  1  0
 15 11  1  0
 12 15  1  0
 16 13  1  0
 14 16  2  0
 17 15  1  0
 18 17  1  0
 19 18  2  0
 18 20  1  0
 21 19  1  0
 20 22  1  0
 20 23  2  0
 24 21  2  0
 23 24  1  0
 25 24  1  0
M  END
>  <pIC50>  (200) 
7.8

>  <ChEMBL_ID>  (200) 
CHEMBL114484

>  <document_journal>  (200) 
J. Med. Chem.

>  <bao_endpoint>  (200) 
BAO_0000190

>  <potential_duplicate>  (200) 
False

>  <uo_units>  (200) 
UO_0000065

>  <canonical_smiles>  (200) 
Cc1ccc(CN2CCC(CC2)n3c(O)nc4ccccc34)c(Cl)c1

>  <parent_molecule_chembl_id>  (200) 
CHEMBL114484

>  <assay_type>  (200) 
B

>  <src_id>  (200) 
1

>  <ligand_efficiency>  (200) 
{u'le': u'0.43', u'bei': u'21.91', u'sei': u'18.88', u'lle': u'3.1'}

>  <standard_flag>  (200) 
True

>  <molecule_chembl_id>  (200) 
CHEMBL114484

>  <target_organism>  (200) 
Homo sapiens

>  <standard_units>  (200) 
nM

>  <record_id>  (200) 
216594

>  <document_chembl_id>  (200) 
CHEMBL1134625

>  <bao_format>  (200) 
BAO_0000357

>  <data_validity_description>  (200) 
None

>  <activity_id>  (200) 
978911

>  <standard_type>  (200) 
IC50

>  <target_chembl_id>  (200) 
CHEMBL233

>  <data_validity_comment>  (200) 
None

>  <published_value>  (200) 
16

>  <document_year>  (200) 
2001

>  <target_pref_name>  (200) 
Mu opioid receptor

>  <assay_chembl_id>  (200) 
CHEMBL757059

>  <standard_relation>  (200) 
=

>  <assay_description>  (200) 
Binding affinity against mu opiate receptor

>  <published_relation>  (200) 
=

>  <standard_value>  (200) 
16

>  <qudt_units>  (200) 
http://www.openphacts.org/units/Nanomolar

>  <target_tax_id>  (200) 
9606

>  <bao_label>  (200) 
single protein format

>  <published_units>  (200) 
nM

>  <pchembl_value>  (200) 
7.8

>  <published_type>  (200) 
IC50

>  <activity_comment>  (200) 
None

$$$$

     RDKit          

 34 38  0  0  0  0  0  0  0  0999 V2000
    0.0000    0.0000    0.0000 F   0  0  0  0  0  0  0  0  0  0  0  0
    0.0000    0.0000    0.0000 C   0  0  0  0  0  0  0  0  0  0  0  0
    0.0000    0.0000    0.0000 C   0  0  0  0  0  0  0  0  0  0  0  0
    0.0000    0.0000    0.0000 C   0  0  0  0  0  0  0  0  0  0  0  0
    0.0000    0.0000    0.0000 C   0  0  0  0  0  0  0  0  0  0  0  0
    0.0000    0.0000    0.0000 C   0  0  0  0  0  0  0  0  0  0  0  0
    0.0000    0.0000    0.0000 C   0  0  0  0  0  0  0  0  0  0  0  0
    0.0000    0.0000    0.0000 C   0  0  0  0  0  0  0  0  0  0  0  0
    0.0000    0.0000    0.0000 C   0  0  0  0  0  0  0  0  0  0  0  0
    0.0000    0.0000    0.0000 C   0  0  0  0  0  0  0  0  0  0  0  0
    0.0000    0.0000    0.0000 C   0  0  0  0  0  0  0  0  0  0  0  0
    0.0000    0.0000    0.0000 N   0  0  0  0  0  0  0  0  0  0  0  0
    0.0000    0.0000    0.0000 C   0  0  0  0  0  0  0  0  0  0  0  0
    0.0000    0.0000    0.0000 C   0  0  0  0  0  0  0  0  0  0  0  0
    0.0000    0.0000    0.0000 C   0  0  0  0  0  0  0  0  0  0  0  0
    0.0000    0.0000    0.0000 C   0  0  0  0  0  0  0  0  0  0  0  0
    0.0000    0.0000    0.0000 C   0  0  0  0  0  0  0  0  0  0  0  0
    0.0000    0.0000    0.0000 N   0  0  0  0  0  0  0  0  0  0  0  0
    0.0000    0.0000    0.0000 C   0  0  0  0  0  0  0  0  0  0  0  0
    0.0000    0.0000    0.0000 O   0  0  0  0  0  0  0  0  0  0  0  0
    0.0000    0.0000    0.0000 N   0  0  0  0  0  0  0  0  0  0  0  0
    0.0000    0.0000    0.0000 C   0  0  0  0  0  0  0  0  0  0  0  0
    0.0000    0.0000    0.0000 C   0  0  0  0  0  0  0  0  0  0  0  0
    0.0000    0.0000    0.0000 C   0  0  0  0  0  0  0  0  0  0  0  0
    0.0000    0.0000    0.0000 C   0  0  0  0  0  0  0  0  0  0  0  0
    0.0000    0.0000    0.0000 C   0  0  0  0  0  0  0  0  0  0  0  0
    0.0000    0.0000    0.0000 C   0  0  0  0  0  0  0  0  0  0  0  0
    0.0000    0.0000    0.0000 C   0  0  0  0  0  0  0  0  0  0  0  0
    0.0000    0.0000    0.0000 C   0  0  0  0  0  0  0  0  0  0  0  0
    0.0000    0.0000    0.0000 C   0  0  0  0  0  0  0  0  0  0  0  0
    0.0000    0.0000    0.0000 C   0  0  0  0  0  0  0  0  0  0  0  0
    0.0000    0.0000    0.0000 F   0  0  0  0  0  0  0  0  0  0  0  0
    0.0000    0.0000    0.0000 C   0  0  0  0  0  0  0  0  0  0  0  0
    0.0000    0.0000    0.0000 C   0  0  0  0  0  0  0  0  0  0  0  0
  1  2  1  0
  2  3  2  0
  3  4  1  0
  4  5  2  0
  5  6  1  0
  6  7  2  0
  5  8  1  0
  8  9  1  0
  9 10  1  0
 10 11  1  0
 11 12  1  0
 12 13  1  0
 13 14  1  0
 14 15  1  0
 15 16  1  0
 16 17  1  0
 15 18  1  0
 18 19  1  0
 19 20  2  0
 19 21  1  0
 21 22  1  0
 22 23  2  0
 23 24  1  0
 24 25  2  0
 25 26  1  0
 26 27  2  0
  8 28  1  0
 28 29  2  0
 29 30  1  0
 30 31  2  0
 31 32  1  0
 31 33  1  0
 33 34  2  0
  7  2  1  0
 17 12  1  0
 27 18  1  0
 27 22  1  0
 34 28  1  0
M  END
>  <pIC50>  (201) 
6.43

>  <ChEMBL_ID>  (201) 
CHEMBL1423

>  <document_journal>  (201) 
J. Med. Chem.

>  <bao_endpoint>  (201) 
BAO_0000190

>  <potential_duplicate>  (201) 
False

>  <uo_units>  (201) 
UO_0000065

>  <canonical_smiles>  (201) 
Fc1ccc(cc1)C(CCCN2CCC(CC2)N3C(=O)Nc4ccccc34)c5ccc(F)cc5

>  <parent_molecule_chembl_id>  (201) 
CHEMBL1423

>  <assay_type>  (201) 
B

>  <src_id>  (201) 
1

>  <ligand_efficiency>  (201) 
{u'le': u'0.26', u'bei': u'13.93', u'sei': u'18.07', u'lle': u'0.91'}

>  <standard_flag>  (201) 
True

>  <molecule_chembl_id>  (201) 
CHEMBL1423

>  <target_organism>  (201) 
Homo sapiens

>  <standard_units>  (201) 
nM

>  <record_id>  (201) 
216607

>  <document_chembl_id>  (201) 
CHEMBL1134625

>  <bao_format>  (201) 
BAO_0000357

>  <data_validity_description>  (201) 
None

>  <activity_id>  (201) 
978924

>  <standard_type>  (201) 
IC50

>  <target_chembl_id>  (201) 
CHEMBL233

>  <data_validity_comment>  (201) 
None

>  <published_value>  (201) 
372

>  <document_year>  (201) 
2001

>  <target_pref_name>  (201) 
Mu opioid receptor

>  <assay_chembl_id>  (201) 
CHEMBL755357

>  <standard_relation>  (201) 
=

>  <assay_description>  (201) 
Binding affinity against mu opioid receptor using [3H]DAMGO

>  <published_relation>  (201) 
=

>  <standard_value>  (201) 
372

>  <qudt_units>  (201) 
http://www.openphacts.org/units/Nanomolar

>  <target_tax_id>  (201) 
9606

>  <bao_label>  (201) 
single protein format

>  <published_units>  (201) 
nM

>  <pchembl_value>  (201) 
6.43

>  <published_type>  (201) 
IC50

>  <activity_comment>  (201) 
None

$$$$

     RDKit          

 30 33  0  0  0  0  0  0  0  0999 V2000
    0.0000    0.0000    0.0000 F   0  0  0  0  0  0  0  0  0  0  0  0
    0.0000    0.0000    0.0000 C   0  0  0  0  0  0  0  0  0  0  0  0
    0.0000    0.0000    0.0000 C   0  0  0  0  0  0  0  0  0  0  0  0
    0.0000    0.0000    0.0000 C   0  0  0  0  0  0  0  0  0  0  0  0
    0.0000    0.0000    0.0000 C   0  0  0  0  0  0  0  0  0  0  0  0
    0.0000    0.0000    0.0000 C   0  0  0  0  0  0  0  0  0  0  0  0
    0.0000    0.0000    0.0000 C   0  0  0  0  0  0  0  0  0  0  0  0
    0.0000    0.0000    0.0000 C   0  0  0  0  0  0  0  0  0  0  0  0
    0.0000    0.0000    0.0000 N   0  0  0  0  0  0  0  0  0  0  0  0
    0.0000    0.0000    0.0000 C   0  0  0  0  0  0  0  0  0  0  0  0
    0.0000    0.0000    0.0000 C   0  0  0  0  0  0  0  0  0  0  0  0
    0.0000    0.0000    0.0000 N   0  0  0  0  0  0  0  0  0  0  0  0
    0.0000    0.0000    0.0000 C   0  0  0  0  0  0  0  0  0  0  0  0
    0.0000    0.0000    0.0000 C   0  0  0  0  0  0  0  0  0  0  0  0
    0.0000    0.0000    0.0000 C   0  0  0  0  0  0  0  0  0  0  0  0
    0.0000    0.0000    0.0000 C   0  0  0  0  0  0  0  0  0  0  0  0
    0.0000    0.0000    0.0000 C   0  0  0  0  0  0  0  0  0  0  0  0
    0.0000    0.0000    0.0000 C   0  0  0  0  0  0  0  0  0  0  0  0
    0.0000    0.0000    0.0000 C   0  0  0  0  0  0  0  0  0  0  0  0
    0.0000    0.0000    0.0000 C   0  0  0  0  0  0  0  0  0  0  0  0
    0.0000    0.0000    0.0000 C   0  0  0  0  0  0  0  0  0  0  0  0
    0.0000    0.0000    0.0000 C   0  0  0  0  0  0  0  0  0  0  0  0
    0.0000    0.0000    0.0000 C   0  0  0  0  0  0  0  0  0  0  0  0
    0.0000    0.0000    0.0000 C   0  0  0  0  0  0  0  0  0  0  0  0
    0.0000    0.0000    0.0000 C   0  0  0  0  0  0  0  0  0  0  0  0
    0.0000    0.0000    0.0000 C   0  0  0  0  0  0  0  0  0  0  0  0
    0.0000    0.0000    0.0000 C   0  0  0  0  0  0  0  0  0  0  0  0
    0.0000    0.0000    0.0000 F   0  0  0  0  0  0  0  0  0  0  0  0
    0.0000    0.0000    0.0000 C   0  0  0  0  0  0  0  0  0  0  0  0
    0.0000    0.0000    0.0000 C   0  0  0  0  0  0  0  0  0  0  0  0
  1  2  1  0
  2  3  2  0
  3  4  1  0
  4  5  2  0
  5  6  1  0
  6  7  2  0
  5  8  1  0
  8  9  1  0
  9 10  1  0
 10 11  1  0
 11 12  1  0
 12 13  1  0
 13 14  1  0
 14 15  2  0
 15 16  1  0
 16 17  2  0
 17 18  1  0
 18 19  2  0
 19 20  1  0
 20 21  2  0
 12 22  1  0
 22 23  1  0
  8 24  1  0
 24 25  2  0
 25 26  1  0
 26 27  2  0
 27 28  1  0
 27 29  1  0
 29 30  2  0
  7  2  1  0
 23  9  1  0
 21 16  1  0
 30 24  1  0
M  END
>  <pIC50>  (202) 
5.62

>  <ChEMBL_ID>  (202) 
CHEMBL552659

>  <document_journal>  (202) 
J. Med. Chem.

>  <bao_endpoint>  (202) 
BAO_0000190

>  <potential_duplicate>  (202) 
False

>  <uo_units>  (202) 
UO_0000065

>  <canonical_smiles>  (202) 
Cl.Cl.Fc1ccc(cc1)C(N2CCN(C\C=C\c3ccccc3)CC2)c4ccc(F)cc4

>  <parent_molecule_chembl_id>  (202) 
CHEMBL30008

>  <assay_type>  (202) 
B

>  <src_id>  (202) 
1

>  <ligand_efficiency>  (202) 
{u'le': u'0.26', u'bei': u'13.89', u'sei': u'86.7', u'lle': u'-0.32'}

>  <standard_flag>  (202) 
True

>  <molecule_chembl_id>  (202) 
CHEMBL552659

>  <target_organism>  (202) 
Homo sapiens

>  <standard_units>  (202) 
nM

>  <record_id>  (202) 
216623

>  <document_chembl_id>  (202) 
CHEMBL1134625

>  <bao_format>  (202) 
BAO_0000357

>  <data_validity_description>  (202) 
None

>  <activity_id>  (202) 
985305

>  <standard_type>  (202) 
IC50

>  <target_chembl_id>  (202) 
CHEMBL233

>  <data_validity_comment>  (202) 
None

>  <published_value>  (202) 
2410

>  <document_year>  (202) 
2001

>  <target_pref_name>  (202) 
Mu opioid receptor

>  <assay_chembl_id>  (202) 
CHEMBL755357

>  <standard_relation>  (202) 
=

>  <assay_description>  (202) 
Binding affinity against mu opioid receptor using [3H]DAMGO

>  <published_relation>  (202) 
=

>  <standard_value>  (202) 
2410

>  <qudt_units>  (202) 
http://www.openphacts.org/units/Nanomolar

>  <target_tax_id>  (202) 
9606

>  <bao_label>  (202) 
single protein format

>  <published_units>  (202) 
nM

>  <pchembl_value>  (202) 
5.62

>  <published_type>  (202) 
IC50

>  <activity_comment>  (202) 
None

$$$$

     RDKit          

 35 38  0  0  0  0  0  0  0  0999 V2000
    0.0000    0.0000    0.0000 C   0  0  0  0  0  0  0  0  0  0  0  0
    0.0000    0.0000    0.0000 O   0  0  0  0  0  0  0  0  0  0  0  0
    0.0000    0.0000    0.0000 C   0  0  0  0  0  0  0  0  0  0  0  0
    0.0000    0.0000    0.0000 C   0  0  0  0  0  0  0  0  0  0  0  0
    0.0000    0.0000    0.0000 C   0  0  0  0  0  0  0  0  0  0  0  0
    0.0000    0.0000    0.0000 C   0  0  0  0  0  0  0  0  0  0  0  0
    0.0000    0.0000    0.0000 C   0  0  0  0  0  0  0  0  0  0  0  0
    0.0000    0.0000    0.0000 C   0  0  0  0  0  0  0  0  0  0  0  0
    0.0000    0.0000    0.0000 C   0  0  0  0  0  0  0  0  0  0  0  0
    0.0000    0.0000    0.0000 C   0  0  0  0  0  0  0  0  0  0  0  0
    0.0000    0.0000    0.0000 C   0  0  0  0  0  0  0  0  0  0  0  0
    0.0000    0.0000    0.0000 C   0  0  0  0  0  0  0  0  0  0  0  0
    0.0000    0.0000    0.0000 C   0  0  0  0  0  0  0  0  0  0  0  0
    0.0000    0.0000    0.0000 C   0  0  0  0  0  0  0  0  0  0  0  0
    0.0000    0.0000    0.0000 N   0  0  0  0  0  0  0  0  0  0  0  0
    0.0000    0.0000    0.0000 C   0  0  0  0  0  0  0  0  0  0  0  0
    0.0000    0.0000    0.0000 C   0  0  0  0  0  0  0  0  0  0  0  0
    0.0000    0.0000    0.0000 C   0  0  0  0  0  0  0  0  0  0  0  0
    0.0000    0.0000    0.0000 C   0  0  0  0  0  0  0  0  0  0  0  0
    0.0000    0.0000    0.0000 O   0  0  0  0  0  0  0  0  0  0  0  0
    0.0000    0.0000    0.0000 C   0  0  0  0  0  0  0  0  0  0  0  0
    0.0000    0.0000    0.0000 N   0  0  0  0  0  0  0  0  0  0  0  0
    0.0000    0.0000    0.0000 C   0  0  0  0  0  0  0  0  0  0  0  0
    0.0000    0.0000    0.0000 C   0  0  0  0  0  0  0  0  0  0  0  0
    0.0000    0.0000    0.0000 C   0  0  0  0  0  0  0  0  0  0  0  0
    0.0000    0.0000    0.0000 C   0  0  0  0  0  0  0  0  0  0  0  0
    0.0000    0.0000    0.0000 C   0  0  0  0  0  0  0  0  0  0  0  0
    0.0000    0.0000    0.0000 C   0  0  0  0  0  0  0  0  0  0  0  0
    0.0000    0.0000    0.0000 O   0  0  0  0  0  0  0  0  0  0  0  0
    0.0000    0.0000    0.0000 C   0  0  0  0  0  0  0  0  0  0  0  0
    0.0000    0.0000    0.0000 C   0  0  0  0  0  0  0  0  0  0  0  0
    0.0000    0.0000    0.0000 C   0  0  0  0  0  0  0  0  0  0  0  0
    0.0000    0.0000    0.0000 C   0  0  0  0  0  0  0  0  0  0  0  0
    0.0000    0.0000    0.0000 O   0  0  0  0  0  0  0  0  0  0  0  0
    0.0000    0.0000    0.0000 O   0  0  0  0  0  0  0  0  0  0  0  0
  1  2  1  0
  2  3  1  0
  3  4  2  0
  4  5  1  0
  5  6  2  0
  6  7  1  0
  7  8  2  0
  6  9  1  0
  9 10  2  0
 10 11  1  0
 11 12  2  0
 12 13  1  0
 13 14  1  0
 14 15  1  0
 15 16  1  0
 16 17  1  0
 17 18  2  0
 15 19  1  0
 19 20  2  0
 19 21  1  0
 21 22  1  0
 21 23  1  0
 23 24  1  0
 24 25  2  0
 25 26  1  0
 25 27  1  0
 27 28  2  0
 28 29  1  0
 28 30  1  0
 30 31  2  0
 31 32  1  0
 14 33  1  0
 33 34  2  0
 33 35  1  0
  8  3  1  0
 18  9  1  0
 17 12  1  0
 31 24  1  0
M  END
>  <pIC50>  (203) 
5.94

>  <ChEMBL_ID>  (203) 
CHEMBL2114977

>  <document_journal>  (203) 
Bioorg. Med. Chem. Lett.

>  <bao_endpoint>  (203) 
BAO_0000190

>  <potential_duplicate>  (203) 
False

>  <uo_units>  (203) 
UO_0000065

>  <canonical_smiles>  (203) 
COc1ccc(cc1)c2ccc3C[C@H](N(Cc3c2)C(=O)[C@@H](N)Cc4c(C)cc(O)cc4C)C(=O)O

>  <parent_molecule_chembl_id>  (203) 
CHEMBL2114977

>  <assay_type>  (203) 
B

>  <src_id>  (203) 
1

>  <ligand_efficiency>  (203) 
{u'le': u'0.23', u'bei': u'12.52', u'sei': u'5.26', u'lle': u'4.25'}

>  <standard_flag>  (203) 
True

>  <molecule_chembl_id>  (203) 
CHEMBL2114977

>  <target_organism>  (203) 
Homo sapiens

>  <standard_units>  (203) 
nM

>  <record_id>  (203) 
76666

>  <document_chembl_id>  (203) 
CHEMBL1132761

>  <bao_format>  (203) 
BAO_0000357

>  <data_validity_description>  (203) 
None

>  <activity_id>  (203) 
1028708

>  <standard_type>  (203) 
IC50

>  <target_chembl_id>  (203) 
CHEMBL233

>  <data_validity_comment>  (203) 
None

>  <published_value>  (203) 
1140

>  <document_year>  (203) 
2000

>  <target_pref_name>  (203) 
Mu opioid receptor

>  <assay_chembl_id>  (203) 
CHEMBL757307

>  <standard_relation>  (203) 
=

>  <assay_description>  (203) 
Compound was evaluated for binding affinity towards Opioid receptor mu 1 by displacing 125 I-FK-33824

>  <published_relation>  (203) 
=

>  <standard_value>  (203) 
1140

>  <qudt_units>  (203) 
http://www.openphacts.org/units/Nanomolar

>  <target_tax_id>  (203) 
9606

>  <bao_label>  (203) 
single protein format

>  <published_units>  (203) 
nM

>  <pchembl_value>  (203) 
5.94

>  <published_type>  (203) 
IC50

>  <activity_comment>  (203) 
None

$$$$

     RDKit          

 29 31  0  0  0  0  0  0  0  0999 V2000
    0.0000    0.0000    0.0000 C   0  0  0  0  0  0  0  0  0  0  0  0
    0.0000    0.0000    0.0000 O   0  0  0  0  0  0  0  0  0  0  0  0
    0.0000    0.0000    0.0000 C   0  0  0  0  0  0  0  0  0  0  0  0
    0.0000    0.0000    0.0000 C   0  0  0  0  0  0  0  0  0  0  0  0
    0.0000    0.0000    0.0000 C   0  0  0  0  0  0  0  0  0  0  0  0
    0.0000    0.0000    0.0000 C   0  0  0  0  0  0  0  0  0  0  0  0
    0.0000    0.0000    0.0000 C   0  0  0  0  0  0  0  0  0  0  0  0
    0.0000    0.0000    0.0000 C   0  0  0  0  0  0  0  0  0  0  0  0
    0.0000    0.0000    0.0000 N   0  0  0  0  0  0  0  0  0  0  0  0
    0.0000    0.0000    0.0000 C   0  0  0  0  0  0  0  0  0  0  0  0
    0.0000    0.0000    0.0000 C   0  0  0  0  0  0  0  0  0  0  0  0
    0.0000    0.0000    0.0000 C   0  0  0  0  0  0  0  0  0  0  0  0
    0.0000    0.0000    0.0000 C   0  0  0  0  0  0  0  0  0  0  0  0
    0.0000    0.0000    0.0000 O   0  0  0  0  0  0  0  0  0  0  0  0
    0.0000    0.0000    0.0000 C   0  0  0  0  0  0  0  0  0  0  0  0
    0.0000    0.0000    0.0000 N   0  0  0  0  0  0  0  0  0  0  0  0
    0.0000    0.0000    0.0000 C   0  0  0  0  0  0  0  0  0  0  0  0
    0.0000    0.0000    0.0000 C   0  0  0  0  0  0  0  0  0  0  0  0
    0.0000    0.0000    0.0000 C   0  0  0  0  0  0  0  0  0  0  0  0
    0.0000    0.0000    0.0000 C   0  0  0  0  0  0  0  0  0  0  0  0
    0.0000    0.0000    0.0000 C   0  0  0  0  0  0  0  0  0  0  0  0
    0.0000    0.0000    0.0000 C   0  0  0  0  0  0  0  0  0  0  0  0
    0.0000    0.0000    0.0000 O   0  0  0  0  0  0  0  0  0  0  0  0
    0.0000    0.0000    0.0000 C   0  0  0  0  0  0  0  0  0  0  0  0
    0.0000    0.0000    0.0000 C   0  0  0  0  0  0  0  0  0  0  0  0
    0.0000    0.0000    0.0000 C   0  0  0  0  0  0  0  0  0  0  0  0
    0.0000    0.0000    0.0000 C   0  0  0  0  0  0  0  0  0  0  0  0
    0.0000    0.0000    0.0000 O   0  0  0  0  0  0  0  0  0  0  0  0
    0.0000    0.0000    0.0000 O   0  0  0  0  0  0  0  0  0  0  0  0
  1  2  1  0
  2  3  1  0
  3  4  2  0
  4  5  1  0
  5  6  2  0
  6  7  1  0
  7  8  1  0
  8  9  1  0
  9 10  1  0
 10 11  1  0
 11 12  2  0
  9 13  1  0
 13 14  2  0
 13 15  1  0
 15 16  1  0
 15 17  1  0
 17 18  1  0
 18 19  2  0
 19 20  1  0
 19 21  1  0
 21 22  2  0
 22 23  1  0
 22 24  1  0
 24 25  2  0
 25 26  1  0
  8 27  1  0
 27 28  2  0
 27 29  1  0
 12  3  1  0
 11  6  1  0
 25 18  1  0
M  END
>  <pIC50>  (204) 
5.54

>  <ChEMBL_ID>  (204) 
CHEMBL2114982

>  <document_journal>  (204) 
Bioorg. Med. Chem. Lett.

>  <bao_endpoint>  (204) 
BAO_0000190

>  <potential_duplicate>  (204) 
False

>  <uo_units>  (204) 
UO_0000065

>  <canonical_smiles>  (204) 
COc1ccc2C[C@H](N(Cc2c1)C(=O)[C@@H](N)Cc3c(C)cc(O)cc3C)C(=O)O

>  <parent_molecule_chembl_id>  (204) 
CHEMBL2114982

>  <assay_type>  (204) 
B

>  <src_id>  (204) 
1

>  <ligand_efficiency>  (204) 
{u'le': u'0.26', u'bei': u'13.91', u'sei': u'4.9', u'lle': u'5.37'}

>  <standard_flag>  (204) 
True

>  <molecule_chembl_id>  (204) 
CHEMBL2114982

>  <target_organism>  (204) 
Homo sapiens

>  <standard_units>  (204) 
nM

>  <record_id>  (204) 
76672

>  <document_chembl_id>  (204) 
CHEMBL1132761

>  <bao_format>  (204) 
BAO_0000357

>  <data_validity_description>  (204) 
None

>  <activity_id>  (204) 
1030023

>  <standard_type>  (204) 
IC50

>  <target_chembl_id>  (204) 
CHEMBL233

>  <data_validity_comment>  (204) 
None

>  <published_value>  (204) 
2870

>  <document_year>  (204) 
2000

>  <target_pref_name>  (204) 
Mu opioid receptor

>  <assay_chembl_id>  (204) 
CHEMBL757307

>  <standard_relation>  (204) 
=

>  <assay_description>  (204) 
Compound was evaluated for binding affinity towards Opioid receptor mu 1 by displacing 125 I-FK-33824

>  <published_relation>  (204) 
=

>  <standard_value>  (204) 
2870

>  <qudt_units>  (204) 
http://www.openphacts.org/units/Nanomolar

>  <target_tax_id>  (204) 
9606

>  <bao_label>  (204) 
single protein format

>  <published_units>  (204) 
nM

>  <pchembl_value>  (204) 
5.54

>  <published_type>  (204) 
IC50

>  <activity_comment>  (204) 
None

$$$$

     RDKit          

 33 35  0  0  0  0  0  0  0  0999 V2000
    0.0000    0.0000    0.0000 C   0  0  0  0  0  0  0  0  0  0  0  0
    0.0000    0.0000    0.0000 C   0  0  0  0  0  0  0  0  0  0  0  0
    0.0000    0.0000    0.0000 C   0  0  0  0  0  0  0  0  0  0  0  0
    0.0000    0.0000    0.0000 C   0  0  0  0  0  0  0  0  0  0  0  0
    0.0000    0.0000    0.0000 O   0  0  0  0  0  0  0  0  0  0  0  0
    0.0000    0.0000    0.0000 C   0  0  0  0  0  0  0  0  0  0  0  0
    0.0000    0.0000    0.0000 C   0  0  0  0  0  0  0  0  0  0  0  0
    0.0000    0.0000    0.0000 C   0  0  0  0  0  0  0  0  0  0  0  0
    0.0000    0.0000    0.0000 C   0  0  0  0  0  0  0  0  0  0  0  0
    0.0000    0.0000    0.0000 C   0  0  0  0  0  0  0  0  0  0  0  0
    0.0000    0.0000    0.0000 C   0  0  0  0  0  0  0  0  0  0  0  0
    0.0000    0.0000    0.0000 N   0  0  0  0  0  0  0  0  0  0  0  0
    0.0000    0.0000    0.0000 C   0  0  0  0  0  0  0  0  0  0  0  0
    0.0000    0.0000    0.0000 O   0  0  0  0  0  0  0  0  0  0  0  0
    0.0000    0.0000    0.0000 N   0  0  0  0  0  0  0  0  0  0  0  0
    0.0000    0.0000    0.0000 C   0  0  0  0  0  0  0  0  0  0  0  0
    0.0000    0.0000    0.0000 C   0  0  0  0  0  0  0  0  0  0  0  0
    0.0000    0.0000    0.0000 C   0  0  0  0  0  0  0  0  0  0  0  0
    0.0000    0.0000    0.0000 C   0  0  0  0  0  0  0  0  0  0  0  0
    0.0000    0.0000    0.0000 C   0  0  0  0  0  0  0  0  0  0  0  0
    0.0000    0.0000    0.0000 C   0  0  0  0  0  0  0  0  0  0  0  0
    0.0000    0.0000    0.0000 C   0  0  0  0  0  0  0  0  0  0  0  0
    0.0000    0.0000    0.0000 C   0  0  0  0  0  0  0  0  0  0  0  0
    0.0000    0.0000    0.0000 C   0  0  0  0  0  0  0  0  0  0  0  0
    0.0000    0.0000    0.0000 C   0  0  0  0  0  0  0  0  0  0  0  0
    0.0000    0.0000    0.0000 N   0  0  0  0  0  0  0  0  0  0  0  0
    0.0000    0.0000    0.0000 C   0  0  0  0  0  0  0  0  0  0  0  0
    0.0000    0.0000    0.0000 S   0  0  0  0  0  0  0  0  0  0  0  0
    0.0000    0.0000    0.0000 N   0  0  0  0  0  0  0  0  0  0  0  0
    0.0000    0.0000    0.0000 C   0  0  0  0  0  0  0  0  0  0  0  0
    0.0000    0.0000    0.0000 C   0  0  0  0  0  0  0  0  0  0  0  0
    0.0000    0.0000    0.0000 C   0  0  0  0  0  0  0  0  0  0  0  0
    0.0000    0.0000    0.0000 C   0  0  0  0  0  0  0  0  0  0  0  0
  1  2  1  0
  2  3  2  0
  3  4  1  0
  4  5  1  0
  4  6  2  0
  6  7  1  0
  7  8  1  0
  7  9  2  0
  9 10  1  0
 10 11  1  0
 11 12  1  0
 11 13  1  0
 13 14  2  0
 13 15  1  0
 15 16  1  0
 16 17  1  0
 17 18  2  0
 18 19  1  0
 19 20  2  0
 20 21  1  0
 21 22  2  0
 22 23  1  0
 23 24  1  0
 24 25  1  0
 25 26  1  0
 26 27  2  0
 27 28  1  0
 27 29  1  0
 29 30  1  0
 30 31  1  0
 30 32  1  0
 30 33  1  0
  9  2  1  0
 24 15  1  0
 22 17  1  0
M  END
>  <pIC50>  (205) 
7.44

>  <ChEMBL_ID>  (205) 
CHEMBL421520

>  <document_journal>  (205) 
J. Med. Chem.

>  <bao_endpoint>  (205) 
BAO_0000190

>  <potential_duplicate>  (205) 
False

>  <uo_units>  (205) 
UO_0000065

>  <canonical_smiles>  (205) 
Cc1cc(O)cc(C)c1C[C@H](N)C(=O)N2Cc3ccccc3C[C@H]2C\N=C(\S)/NC(C)(C)C

>  <parent_molecule_chembl_id>  (205) 
CHEMBL421520

>  <assay_type>  (205) 
B

>  <src_id>  (205) 
1

>  <ligand_efficiency>  (205) 
{u'le': u'0.31', u'bei': u'15.88', u'sei': u'5.74', u'lle': u'2.96'}

>  <standard_flag>  (205) 
True

>  <molecule_chembl_id>  (205) 
CHEMBL421520

>  <target_organism>  (205) 
Homo sapiens

>  <standard_units>  (205) 
nM

>  <record_id>  (205) 
140317

>  <document_chembl_id>  (205) 
CHEMBL1134689

>  <bao_format>  (205) 
BAO_0000357

>  <data_validity_description>  (205) 
None

>  <activity_id>  (205) 
1031456

>  <standard_type>  (205) 
IC50

>  <target_chembl_id>  (205) 
CHEMBL233

>  <data_validity_comment>  (205) 
None

>  <published_value>  (205) 
36

>  <document_year>  (205) 
2001

>  <target_pref_name>  (205) 
Mu opioid receptor

>  <assay_chembl_id>  (205) 
CHEMBL757823

>  <standard_relation>  (205) 
=

>  <assay_description>  (205) 
Binding affinity at cloned human mu-opioid receptor

>  <published_relation>  (205) 
=

>  <standard_value>  (205) 
36

>  <qudt_units>  (205) 
http://www.openphacts.org/units/Nanomolar

>  <target_tax_id>  (205) 
9606

>  <bao_label>  (205) 
single protein format

>  <published_units>  (205) 
nM

>  <pchembl_value>  (205) 
7.44

>  <published_type>  (205) 
IC50

>  <activity_comment>  (205) 
None

$$$$

     RDKit          

 28 30  0  0  0  0  0  0  0  0999 V2000
    0.0000    0.0000    0.0000 C   0  0  0  0  0  0  0  0  0  0  0  0
    0.0000    0.0000    0.0000 C   0  0  0  0  0  0  0  0  0  0  0  0
    0.0000    0.0000    0.0000 C   0  0  0  0  0  0  0  0  0  0  0  0
    0.0000    0.0000    0.0000 C   0  0  0  0  0  0  0  0  0  0  0  0
    0.0000    0.0000    0.0000 O   0  0  0  0  0  0  0  0  0  0  0  0
    0.0000    0.0000    0.0000 C   0  0  0  0  0  0  0  0  0  0  0  0
    0.0000    0.0000    0.0000 C   0  0  0  0  0  0  0  0  0  0  0  0
    0.0000    0.0000    0.0000 C   0  0  0  0  0  0  0  0  0  0  0  0
    0.0000    0.0000    0.0000 C   0  0  0  0  0  0  0  0  0  0  0  0
    0.0000    0.0000    0.0000 C   0  0  0  0  0  0  0  0  0  0  0  0
    0.0000    0.0000    0.0000 C   0  0  0  0  0  0  0  0  0  0  0  0
    0.0000    0.0000    0.0000 N   0  0  0  0  0  0  0  0  0  0  0  0
    0.0000    0.0000    0.0000 C   0  0  0  0  0  0  0  0  0  0  0  0
    0.0000    0.0000    0.0000 O   0  0  0  0  0  0  0  0  0  0  0  0
    0.0000    0.0000    0.0000 N   0  0  0  0  0  0  0  0  0  0  0  0
    0.0000    0.0000    0.0000 C   0  0  0  0  0  0  0  0  0  0  0  0
    0.0000    0.0000    0.0000 C   0  0  0  0  0  0  0  0  0  0  0  0
    0.0000    0.0000    0.0000 C   0  0  0  0  0  0  0  0  0  0  0  0
    0.0000    0.0000    0.0000 C   0  0  0  0  0  0  0  0  0  0  0  0
    0.0000    0.0000    0.0000 O   0  0  0  0  0  0  0  0  0  0  0  0
    0.0000    0.0000    0.0000 C   0  0  0  0  0  0  0  0  0  0  0  0
    0.0000    0.0000    0.0000 C   0  0  0  0  0  0  0  0  0  0  0  0
    0.0000    0.0000    0.0000 C   0  0  0  0  0  0  0  0  0  0  0  0
    0.0000    0.0000    0.0000 C   0  0  0  0  0  0  0  0  0  0  0  0
    0.0000    0.0000    0.0000 C   0  0  0  0  0  0  0  0  0  0  0  0
    0.0000    0.0000    0.0000 C   0  0  0  0  0  0  0  0  0  0  0  0
    0.0000    0.0000    0.0000 O   0  0  0  0  0  0  0  0  0  0  0  0
    0.0000    0.0000    0.0000 O   0  0  0  0  0  0  0  0  0  0  0  0
  1  2  1  0
  2  3  2  0
  3  4  1  0
  4  5  1  0
  4  6  2  0
  6  7  1  0
  7  8  1  0
  7  9  2  0
  9 10  1  0
 10 11  1  0
 11 12  1  0
 11 13  1  0
 13 14  2  0
 13 15  1  0
 15 16  1  0
 16 17  1  0
 17 18  2  0
 18 19  1  0
 19 20  1  0
 19 21  2  0
 21 22  1  0
 22 23  2  0
 23 24  1  0
 24 25  1  0
 25 26  1  0
 26 27  2  0
 26 28  1  0
  9  2  1  0
 25 15  1  0
 23 17  1  0
M  END
>  <pIC50>  (206) 
5.67

>  <ChEMBL_ID>  (206) 
CHEMBL44732

>  <document_journal>  (206) 
Bioorg. Med. Chem. Lett.

>  <bao_endpoint>  (206) 
BAO_0000190

>  <potential_duplicate>  (206) 
False

>  <uo_units>  (206) 
UO_0000065

>  <canonical_smiles>  (206) 
Cc1cc(O)cc(C)c1CC(N)C(=O)N2Cc3cc(O)ccc3C[C@H]2C(=O)O

>  <parent_molecule_chembl_id>  (206) 
CHEMBL44732

>  <assay_type>  (206) 
B

>  <src_id>  (206) 
1

>  <ligand_efficiency>  (206) 
{u'le': u'0.28', u'bei': u'14.74', u'sei': u'4.57', u'lle': u'5.73'}

>  <standard_flag>  (206) 
True

>  <molecule_chembl_id>  (206) 
CHEMBL44732

>  <target_organism>  (206) 
Homo sapiens

>  <standard_units>  (206) 
nM

>  <record_id>  (206) 
76678

>  <document_chembl_id>  (206) 
CHEMBL1132761

>  <bao_format>  (206) 
BAO_0000357

>  <data_validity_description>  (206) 
None

>  <activity_id>  (206) 
1032379

>  <standard_type>  (206) 
IC50

>  <target_chembl_id>  (206) 
CHEMBL233

>  <data_validity_comment>  (206) 
None

>  <published_value>  (206) 
2160

>  <document_year>  (206) 
2000

>  <target_pref_name>  (206) 
Mu opioid receptor

>  <assay_chembl_id>  (206) 
CHEMBL757307

>  <standard_relation>  (206) 
=

>  <assay_description>  (206) 
Compound was evaluated for binding affinity towards Opioid receptor mu 1 by displacing 125 I-FK-33824

>  <published_relation>  (206) 
=

>  <standard_value>  (206) 
2160

>  <qudt_units>  (206) 
http://www.openphacts.org/units/Nanomolar

>  <target_tax_id>  (206) 
9606

>  <bao_label>  (206) 
single protein format

>  <published_units>  (206) 
nM

>  <pchembl_value>  (206) 
5.67

>  <published_type>  (206) 
IC50

>  <activity_comment>  (206) 
None

$$$$

     RDKit          

 33 36  0  0  0  0  0  0  0  0999 V2000
    0.0000    0.0000    0.0000 C   0  0  0  0  0  0  0  0  0  0  0  0
    0.0000    0.0000    0.0000 C   0  0  0  0  0  0  0  0  0  0  0  0
    0.0000    0.0000    0.0000 C   0  0  0  0  0  0  0  0  0  0  0  0
    0.0000    0.0000    0.0000 C   0  0  0  0  0  0  0  0  0  0  0  0
    0.0000    0.0000    0.0000 O   0  0  0  0  0  0  0  0  0  0  0  0
    0.0000    0.0000    0.0000 C   0  0  0  0  0  0  0  0  0  0  0  0
    0.0000    0.0000    0.0000 C   0  0  0  0  0  0  0  0  0  0  0  0
    0.0000    0.0000    0.0000 C   0  0  0  0  0  0  0  0  0  0  0  0
    0.0000    0.0000    0.0000 C   0  0  0  0  0  0  0  0  0  0  0  0
    0.0000    0.0000    0.0000 C   0  0  0  0  0  0  0  0  0  0  0  0
    0.0000    0.0000    0.0000 C   0  0  0  0  0  0  0  0  0  0  0  0
    0.0000    0.0000    0.0000 N   0  0  0  0  0  0  0  0  0  0  0  0
    0.0000    0.0000    0.0000 C   0  0  0  0  0  0  0  0  0  0  0  0
    0.0000    0.0000    0.0000 O   0  0  0  0  0  0  0  0  0  0  0  0
    0.0000    0.0000    0.0000 N   0  0  0  0  0  0  0  0  0  0  0  0
    0.0000    0.0000    0.0000 C   0  0  0  0  0  0  0  0  0  0  0  0
    0.0000    0.0000    0.0000 C   0  0  0  0  0  0  0  0  0  0  0  0
    0.0000    0.0000    0.0000 C   0  0  0  0  0  0  0  0  0  0  0  0
    0.0000    0.0000    0.0000 C   0  0  0  0  0  0  0  0  0  0  0  0
    0.0000    0.0000    0.0000 C   0  0  0  0  0  0  0  0  0  0  0  0
    0.0000    0.0000    0.0000 C   0  0  0  0  0  0  0  0  0  0  0  0
    0.0000    0.0000    0.0000 C   0  0  0  0  0  0  0  0  0  0  0  0
    0.0000    0.0000    0.0000 C   0  0  0  0  0  0  0  0  0  0  0  0
    0.0000    0.0000    0.0000 C   0  0  0  0  0  0  0  0  0  0  0  0
    0.0000    0.0000    0.0000 C   0  0  0  0  0  0  0  0  0  0  0  0
    0.0000    0.0000    0.0000 O   0  0  0  0  0  0  0  0  0  0  0  0
    0.0000    0.0000    0.0000 O   0  0  0  0  0  0  0  0  0  0  0  0
    0.0000    0.0000    0.0000 C   0  0  0  0  0  0  0  0  0  0  0  0
    0.0000    0.0000    0.0000 C   0  0  0  0  0  0  0  0  0  0  0  0
    0.0000    0.0000    0.0000 C   0  0  0  0  0  0  0  0  0  0  0  0
    0.0000    0.0000    0.0000 C   0  0  0  0  0  0  0  0  0  0  0  0
    0.0000    0.0000    0.0000 C   0  0  0  0  0  0  0  0  0  0  0  0
    0.0000    0.0000    0.0000 C   0  0  0  0  0  0  0  0  0  0  0  0
  1  2  1  0
  2  3  2  0
  3  4  1  0
  4  5  1  0
  4  6  2  0
  6  7  1  0
  7  8  1  0
  7  9  2  0
  9 10  1  0
 10 11  1  0
 11 12  1  0
 11 13  1  0
 13 14  2  0
 13 15  1  0
 15 16  1  0
 16 17  1  0
 17 18  2  0
 18 19  1  0
 19 20  2  0
 20 21  1  0
 21 22  2  0
 22 23  1  0
 23 24  1  0
 24 25  1  0
 25 26  2  0
 25 27  1  0
 19 28  1  0
 28 29  2  0
 29 30  1  0
 30 31  2  0
 31 32  1  0
 32 33  2  0
  9  2  1  0
 24 15  1  0
 22 17  1  0
 33 28  1  0
M  END
>  <pIC50>  (207) 
6.2

>  <ChEMBL_ID>  (207) 
CHEMBL2114980

>  <document_journal>  (207) 
Bioorg. Med. Chem. Lett.

>  <bao_endpoint>  (207) 
BAO_0000190

>  <potential_duplicate>  (207) 
False

>  <uo_units>  (207) 
UO_0000065

>  <canonical_smiles>  (207) 
Cc1cc(O)cc(C)c1C[C@H](N)C(=O)N2Cc3cc(ccc3C[C@H]2C(=O)O)c4ccccc4

>  <parent_molecule_chembl_id>  (207) 
CHEMBL2114980

>  <assay_type>  (207) 
B

>  <src_id>  (207) 
1

>  <ligand_efficiency>  (207) 
{u'le': u'0.26', u'bei': u'13.94', u'sei': u'5.97', u'lle': u'4.5'}

>  <standard_flag>  (207) 
True

>  <molecule_chembl_id>  (207) 
CHEMBL2114980

>  <target_organism>  (207) 
Homo sapiens

>  <standard_units>  (207) 
nM

>  <record_id>  (207) 
76670

>  <document_chembl_id>  (207) 
CHEMBL1132761

>  <bao_format>  (207) 
BAO_0000357

>  <data_validity_description>  (207) 
None

>  <activity_id>  (207) 
1033634

>  <standard_type>  (207) 
IC50

>  <target_chembl_id>  (207) 
CHEMBL233

>  <data_validity_comment>  (207) 
None

>  <published_value>  (207) 
635

>  <document_year>  (207) 
2000

>  <target_pref_name>  (207) 
Mu opioid receptor

>  <assay_chembl_id>  (207) 
CHEMBL757307

>  <standard_relation>  (207) 
=

>  <assay_description>  (207) 
Compound was evaluated for binding affinity towards Opioid receptor mu 1 by displacing 125 I-FK-33824

>  <published_relation>  (207) 
=

>  <standard_value>  (207) 
635

>  <qudt_units>  (207) 
http://www.openphacts.org/units/Nanomolar

>  <target_tax_id>  (207) 
9606

>  <bao_label>  (207) 
single protein format

>  <published_units>  (207) 
nM

>  <pchembl_value>  (207) 
6.2

>  <published_type>  (207) 
IC50

>  <activity_comment>  (207) 
None

$$$$

     RDKit          

 31 33  0  0  0  0  0  0  0  0999 V2000
    0.0000    0.0000    0.0000 C   0  0  0  0  0  0  0  0  0  0  0  0
    0.0000    0.0000    0.0000 C   0  0  0  0  0  0  0  0  0  0  0  0
    0.0000    0.0000    0.0000 C   0  0  0  0  0  0  0  0  0  0  0  0
    0.0000    0.0000    0.0000 C   0  0  0  0  0  0  0  0  0  0  0  0
    0.0000    0.0000    0.0000 O   0  0  0  0  0  0  0  0  0  0  0  0
    0.0000    0.0000    0.0000 C   0  0  0  0  0  0  0  0  0  0  0  0
    0.0000    0.0000    0.0000 C   0  0  0  0  0  0  0  0  0  0  0  0
    0.0000    0.0000    0.0000 C   0  0  0  0  0  0  0  0  0  0  0  0
    0.0000    0.0000    0.0000 C   0  0  0  0  0  0  0  0  0  0  0  0
    0.0000    0.0000    0.0000 C   0  0  0  0  0  0  0  0  0  0  0  0
    0.0000    0.0000    0.0000 C   0  0  0  0  0  0  0  0  0  0  0  0
    0.0000    0.0000    0.0000 N   0  0  0  0  0  0  0  0  0  0  0  0
    0.0000    0.0000    0.0000 C   0  0  0  0  0  0  0  0  0  0  0  0
    0.0000    0.0000    0.0000 O   0  0  0  0  0  0  0  0  0  0  0  0
    0.0000    0.0000    0.0000 N   0  0  0  0  0  0  0  0  0  0  0  0
    0.0000    0.0000    0.0000 C   0  0  0  0  0  0  0  0  0  0  0  0
    0.0000    0.0000    0.0000 C   0  0  0  0  0  0  0  0  0  0  0  0
    0.0000    0.0000    0.0000 C   0  0  0  0  0  0  0  0  0  0  0  0
    0.0000    0.0000    0.0000 C   0  0  0  0  0  0  0  0  0  0  0  0
    0.0000    0.0000    0.0000 C   0  0  0  0  0  0  0  0  0  0  0  0
    0.0000    0.0000    0.0000 C   0  0  0  0  0  0  0  0  0  0  0  0
    0.0000    0.0000    0.0000 C   0  0  0  0  0  0  0  0  0  0  0  0
    0.0000    0.0000    0.0000 C   0  0  0  0  0  0  0  0  0  0  0  0
    0.0000    0.0000    0.0000 C   0  0  0  0  0  0  0  0  0  0  0  0
    0.0000    0.0000    0.0000 C   0  0  0  0  0  0  0  0  0  0  0  0
    0.0000    0.0000    0.0000 N   0  0  0  0  0  0  0  0  0  0  0  0
    0.0000    0.0000    0.0000 C   0  0  0  0  0  0  0  0  0  0  0  0
    0.0000    0.0000    0.0000 C   0  0  0  0  0  0  0  0  0  0  0  0
    0.0000    0.0000    0.0000 C   0  0  0  0  0  0  0  0  0  0  0  0
    0.0000    0.0000    0.0000 C   0  0  0  0  0  0  0  0  0  0  0  0
    0.0000    0.0000    0.0000 C   0  0  0  0  0  0  0  0  0  0  0  0
  1  2  1  0
  2  3  2  0
  3  4  1  0
  4  5  1  0
  4  6  2  0
  6  7  1  0
  7  8  1  0
  7  9  2  0
  9 10  1  0
 10 11  1  0
 11 12  1  0
 11 13  1  0
 13 14  2  0
 13 15  1  0
 15 16  1  0
 16 17  1  0
 17 18  2  0
 18 19  1  0
 19 20  2  0
 20 21  1  0
 21 22  2  0
 22 23  1  0
 23 24  1  0
 24 25  1  0
 25 26  1  0
 26 27  1  0
 27 28  1  0
 28 29  1  0
 28 30  1  0
 28 31  1  0
  9  2  1  0
 24 15  1  0
 22 17  1  0
M  END
>  <pIC50>  (208) 
8.89

>  <ChEMBL_ID>  (208) 
CHEMBL76573

>  <document_journal>  (208) 
J. Med. Chem.

>  <bao_endpoint>  (208) 
BAO_0000190

>  <potential_duplicate>  (208) 
False

>  <uo_units>  (208) 
UO_0000065

>  <canonical_smiles>  (208) 
Cc1cc(O)cc(C)c1C[C@H](N)C(=O)N2Cc3ccccc3C[C@H]2CNCC(C)(C)C

>  <parent_molecule_chembl_id>  (208) 
CHEMBL76573

>  <assay_type>  (208) 
B

>  <src_id>  (208) 
1

>  <ligand_efficiency>  (208) 
{u'le': u'0.39', u'bei': u'20.98', u'sei': u'11.31', u'lle': u'4.75'}

>  <standard_flag>  (208) 
True

>  <molecule_chembl_id>  (208) 
CHEMBL76573

>  <target_organism>  (208) 
Homo sapiens

>  <standard_units>  (208) 
nM

>  <record_id>  (208) 
140323

>  <document_chembl_id>  (208) 
CHEMBL1134689

>  <bao_format>  (208) 
BAO_0000357

>  <data_validity_description>  (208) 
None

>  <activity_id>  (208) 
1033764

>  <standard_type>  (208) 
IC50

>  <target_chembl_id>  (208) 
CHEMBL233

>  <data_validity_comment>  (208) 
None

>  <published_value>  (208) 
1.3

>  <document_year>  (208) 
2001

>  <target_pref_name>  (208) 
Mu opioid receptor

>  <assay_chembl_id>  (208) 
CHEMBL757823

>  <standard_relation>  (208) 
=

>  <assay_description>  (208) 
Binding affinity at cloned human mu-opioid receptor

>  <published_relation>  (208) 
=

>  <standard_value>  (208) 
1.3

>  <qudt_units>  (208) 
http://www.openphacts.org/units/Nanomolar

>  <target_tax_id>  (208) 
9606

>  <bao_label>  (208) 
single protein format

>  <published_units>  (208) 
nM

>  <pchembl_value>  (208) 
8.89

>  <published_type>  (208) 
IC50

>  <activity_comment>  (208) 
None

$$$$

     RDKit          

 29 31  0  0  0  0  0  0  0  0999 V2000
    0.0000    0.0000    0.0000 C   0  0  0  0  0  0  0  0  0  0  0  0
    0.0000    0.0000    0.0000 O   0  0  0  0  0  0  0  0  0  0  0  0
    0.0000    0.0000    0.0000 C   0  0  0  0  0  0  0  0  0  0  0  0
    0.0000    0.0000    0.0000 C   0  0  0  0  0  0  0  0  0  0  0  0
    0.0000    0.0000    0.0000 C   0  0  0  0  0  0  0  0  0  0  0  0
    0.0000    0.0000    0.0000 C   0  0  0  0  0  0  0  0  0  0  0  0
    0.0000    0.0000    0.0000 C   0  0  0  0  0  0  0  0  0  0  0  0
    0.0000    0.0000    0.0000 C   0  0  0  0  0  0  0  0  0  0  0  0
    0.0000    0.0000    0.0000 N   0  0  0  0  0  0  0  0  0  0  0  0
    0.0000    0.0000    0.0000 C   0  0  0  0  0  0  0  0  0  0  0  0
    0.0000    0.0000    0.0000 C   0  0  0  0  0  0  0  0  0  0  0  0
    0.0000    0.0000    0.0000 C   0  0  0  0  0  0  0  0  0  0  0  0
    0.0000    0.0000    0.0000 C   0  0  0  0  0  0  0  0  0  0  0  0
    0.0000    0.0000    0.0000 O   0  0  0  0  0  0  0  0  0  0  0  0
    0.0000    0.0000    0.0000 C   0  0  0  0  0  0  0  0  0  0  0  0
    0.0000    0.0000    0.0000 N   0  0  0  0  0  0  0  0  0  0  0  0
    0.0000    0.0000    0.0000 C   0  0  0  0  0  0  0  0  0  0  0  0
    0.0000    0.0000    0.0000 C   0  0  0  0  0  0  0  0  0  0  0  0
    0.0000    0.0000    0.0000 C   0  0  0  0  0  0  0  0  0  0  0  0
    0.0000    0.0000    0.0000 C   0  0  0  0  0  0  0  0  0  0  0  0
    0.0000    0.0000    0.0000 C   0  0  0  0  0  0  0  0  0  0  0  0
    0.0000    0.0000    0.0000 C   0  0  0  0  0  0  0  0  0  0  0  0
    0.0000    0.0000    0.0000 O   0  0  0  0  0  0  0  0  0  0  0  0
    0.0000    0.0000    0.0000 C   0  0  0  0  0  0  0  0  0  0  0  0
    0.0000    0.0000    0.0000 C   0  0  0  0  0  0  0  0  0  0  0  0
    0.0000    0.0000    0.0000 C   0  0  0  0  0  0  0  0  0  0  0  0
    0.0000    0.0000    0.0000 C   0  0  0  0  0  0  0  0  0  0  0  0
    0.0000    0.0000    0.0000 O   0  0  0  0  0  0  0  0  0  0  0  0
    0.0000    0.0000    0.0000 O   0  0  0  0  0  0  0  0  0  0  0  0
  1  2  1  0
  2  3  1  0
  3  4  2  0
  4  5  1  0
  5  6  2  0
  6  7  1  0
  7  8  1  0
  8  9  1  0
  9 10  1  0
 10 11  1  0
 11 12  2  0
  9 13  1  0
 13 14  2  0
 13 15  1  0
 15 16  1  0
 15 17  1  0
 17 18  1  0
 18 19  2  0
 19 20  1  0
 19 21  1  0
 21 22  2  0
 22 23  1  0
 22 24  1  0
 24 25  2  0
 25 26  1  0
  8 27  1  0
 27 28  2  0
 27 29  1  0
 12  3  1  0
 11  6  1  0
 25 18  1  0
M  END
>  <pIC50>  (209) 
5.64

>  <ChEMBL_ID>  (209) 
CHEMBL297452

>  <document_journal>  (209) 
Bioorg. Med. Chem. Lett.

>  <bao_endpoint>  (209) 
BAO_0000190

>  <potential_duplicate>  (209) 
False

>  <uo_units>  (209) 
UO_0000065

>  <canonical_smiles>  (209) 
COc1ccc2C[C@H](N(Cc2c1)C(=O)C(N)Cc3c(C)cc(O)cc3C)C(=O)O

>  <parent_molecule_chembl_id>  (209) 
CHEMBL297452

>  <assay_type>  (209) 
B

>  <src_id>  (209) 
1

>  <ligand_efficiency>  (209) 
{u'le': u'0.27', u'bei': u'14.16', u'sei': u'4.99', u'lle': u'5.47'}

>  <standard_flag>  (209) 
True

>  <molecule_chembl_id>  (209) 
CHEMBL297452

>  <target_organism>  (209) 
Homo sapiens

>  <standard_units>  (209) 
nM

>  <record_id>  (209) 
76677

>  <document_chembl_id>  (209) 
CHEMBL1132761

>  <bao_format>  (209) 
BAO_0000357

>  <data_validity_description>  (209) 
None

>  <activity_id>  (209) 
1034901

>  <standard_type>  (209) 
IC50

>  <target_chembl_id>  (209) 
CHEMBL233

>  <data_validity_comment>  (209) 
None

>  <published_value>  (209) 
2280

>  <document_year>  (209) 
2000

>  <target_pref_name>  (209) 
Mu opioid receptor

>  <assay_chembl_id>  (209) 
CHEMBL757307

>  <standard_relation>  (209) 
=

>  <assay_description>  (209) 
Compound was evaluated for binding affinity towards Opioid receptor mu 1 by displacing 125 I-FK-33824

>  <published_relation>  (209) 
=

>  <standard_value>  (209) 
2280

>  <qudt_units>  (209) 
http://www.openphacts.org/units/Nanomolar

>  <target_tax_id>  (209) 
9606

>  <bao_label>  (209) 
single protein format

>  <published_units>  (209) 
nM

>  <pchembl_value>  (209) 
5.64

>  <published_type>  (209) 
IC50

>  <activity_comment>  (209) 
None

$$$$

     RDKit          

 28 30  0  0  0  0  0  0  0  0999 V2000
    0.0000    0.0000    0.0000 C   0  0  0  0  0  0  0  0  0  0  0  0
    0.0000    0.0000    0.0000 N   0  0  0  0  0  0  0  0  0  0  0  0
    0.0000    0.0000    0.0000 C   0  0  0  0  0  0  0  0  0  0  0  0
    0.0000    0.0000    0.0000 C   0  0  0  0  0  0  0  0  0  0  0  0
    0.0000    0.0000    0.0000 C   0  0  0  0  0  0  0  0  0  0  0  0
    0.0000    0.0000    0.0000 C   0  0  0  0  0  0  0  0  0  0  0  0
    0.0000    0.0000    0.0000 C   0  0  0  0  0  0  0  0  0  0  0  0
    0.0000    0.0000    0.0000 C   0  0  0  0  0  0  0  0  0  0  0  0
    0.0000    0.0000    0.0000 C   0  0  0  0  0  0  0  0  0  0  0  0
    0.0000    0.0000    0.0000 C   0  0  0  0  0  0  0  0  0  0  0  0
    0.0000    0.0000    0.0000 C   0  0  0  0  0  0  0  0  0  0  0  0
    0.0000    0.0000    0.0000 C   0  0  0  0  0  0  0  0  0  0  0  0
    0.0000    0.0000    0.0000 C   0  0  0  0  0  0  0  0  0  0  0  0
    0.0000    0.0000    0.0000 N   0  0  0  0  0  0  0  0  0  0  0  0
    0.0000    0.0000    0.0000 C   0  0  0  0  0  0  0  0  0  0  0  0
    0.0000    0.0000    0.0000 O   0  0  0  0  0  0  0  0  0  0  0  0
    0.0000    0.0000    0.0000 C   0  0  0  0  0  0  0  0  0  0  0  0
    0.0000    0.0000    0.0000 N   0  0  0  0  0  0  0  0  0  0  0  0
    0.0000    0.0000    0.0000 C   0  0  0  0  0  0  0  0  0  0  0  0
    0.0000    0.0000    0.0000 C   0  0  0  0  0  0  0  0  0  0  0  0
    0.0000    0.0000    0.0000 C   0  0  0  0  0  0  0  0  0  0  0  0
    0.0000    0.0000    0.0000 C   0  0  0  0  0  0  0  0  0  0  0  0
    0.0000    0.0000    0.0000 C   0  0  0  0  0  0  0  0  0  0  0  0
    0.0000    0.0000    0.0000 C   0  0  0  0  0  0  0  0  0  0  0  0
    0.0000    0.0000    0.0000 O   0  0  0  0  0  0  0  0  0  0  0  0
    0.0000    0.0000    0.0000 C   0  0  0  0  0  0  0  0  0  0  0  0
    0.0000    0.0000    0.0000 C   0  0  0  0  0  0  0  0  0  0  0  0
    0.0000    0.0000    0.0000 C   0  0  0  0  0  0  0  0  0  0  0  0
  1  2  1  0
  2  3  1  0
  2  4  1  0
  4  5  1  0
  5  6  1  0
  6  7  1  0
  7  8  2  0
  8  9  1  0
  9 10  2  0
 10 11  1  0
 11 12  2  0
 12 13  1  0
 13 14  1  0
 14 15  1  0
 15 16  2  0
 15 17  1  0
 17 18  1  0
 17 19  1  0
 19 20  1  0
 20 21  2  0
 21 22  1  0
 21 23  1  0
 23 24  2  0
 24 25  1  0
 24 26  1  0
 26 27  2  0
 27 28  1  0
 14  5  1  0
 12  7  1  0
 27 20  1  0
M  END
>  <pIC50>  (210) 
7.08

>  <ChEMBL_ID>  (210) 
CHEMBL80464

>  <document_journal>  (210) 
J. Med. Chem.

>  <bao_endpoint>  (210) 
BAO_0000190

>  <potential_duplicate>  (210) 
False

>  <uo_units>  (210) 
UO_0000065

>  <canonical_smiles>  (210) 
CN(C)C[C@@H]1Cc2ccccc2CN1C(=O)[C@@H](N)Cc3c(C)cc(O)cc3C

>  <parent_molecule_chembl_id>  (210) 
CHEMBL80464

>  <assay_type>  (210) 
B

>  <src_id>  (210) 
1

>  <ligand_efficiency>  (210) 
{u'le': u'0.35', u'bei': u'18.56', u'sei': u'10.14', u'lle': u'3.87'}

>  <standard_flag>  (210) 
True

>  <molecule_chembl_id>  (210) 
CHEMBL80464

>  <target_organism>  (210) 
Homo sapiens

>  <standard_units>  (210) 
nM

>  <record_id>  (210) 
140325

>  <document_chembl_id>  (210) 
CHEMBL1134689

>  <bao_format>  (210) 
BAO_0000357

>  <data_validity_description>  (210) 
None

>  <activity_id>  (210) 
1036456

>  <standard_type>  (210) 
IC50

>  <target_chembl_id>  (210) 
CHEMBL233

>  <data_validity_comment>  (210) 
None

>  <published_value>  (210) 
83.2

>  <document_year>  (210) 
2001

>  <target_pref_name>  (210) 
Mu opioid receptor

>  <assay_chembl_id>  (210) 
CHEMBL757823

>  <standard_relation>  (210) 
=

>  <assay_description>  (210) 
Binding affinity at cloned human mu-opioid receptor

>  <published_relation>  (210) 
=

>  <standard_value>  (210) 
83.2

>  <qudt_units>  (210) 
http://www.openphacts.org/units/Nanomolar

>  <target_tax_id>  (210) 
9606

>  <bao_label>  (210) 
single protein format

>  <published_units>  (210) 
nM

>  <pchembl_value>  (210) 
7.08

>  <published_type>  (210) 
IC50

>  <activity_comment>  (210) 
None

$$$$

     RDKit          

 34 37  0  0  0  0  0  0  0  0999 V2000
    0.0000    0.0000    0.0000 C   0  0  0  0  0  0  0  0  0  0  0  0
    0.0000    0.0000    0.0000 C   0  0  0  0  0  0  0  0  0  0  0  0
    0.0000    0.0000    0.0000 C   0  0  0  0  0  0  0  0  0  0  0  0
    0.0000    0.0000    0.0000 C   0  0  0  0  0  0  0  0  0  0  0  0
    0.0000    0.0000    0.0000 O   0  0  0  0  0  0  0  0  0  0  0  0
    0.0000    0.0000    0.0000 C   0  0  0  0  0  0  0  0  0  0  0  0
    0.0000    0.0000    0.0000 C   0  0  0  0  0  0  0  0  0  0  0  0
    0.0000    0.0000    0.0000 C   0  0  0  0  0  0  0  0  0  0  0  0
    0.0000    0.0000    0.0000 C   0  0  0  0  0  0  0  0  0  0  0  0
    0.0000    0.0000    0.0000 C   0  0  0  0  0  0  0  0  0  0  0  0
    0.0000    0.0000    0.0000 C   0  0  0  0  0  0  0  0  0  0  0  0
    0.0000    0.0000    0.0000 N   0  0  0  0  0  0  0  0  0  0  0  0
    0.0000    0.0000    0.0000 C   0  0  0  0  0  0  0  0  0  0  0  0
    0.0000    0.0000    0.0000 O   0  0  0  0  0  0  0  0  0  0  0  0
    0.0000    0.0000    0.0000 N   0  0  0  0  0  0  0  0  0  0  0  0
    0.0000    0.0000    0.0000 C   0  0  0  0  0  0  0  0  0  0  0  0
    0.0000    0.0000    0.0000 C   0  0  0  0  0  0  0  0  0  0  0  0
    0.0000    0.0000    0.0000 C   0  0  0  0  0  0  0  0  0  0  0  0
    0.0000    0.0000    0.0000 C   0  0  0  0  0  0  0  0  0  0  0  0
    0.0000    0.0000    0.0000 C   0  0  0  0  0  0  0  0  0  0  0  0
    0.0000    0.0000    0.0000 C   0  0  0  0  0  0  0  0  0  0  0  0
    0.0000    0.0000    0.0000 C   0  0  0  0  0  0  0  0  0  0  0  0
    0.0000    0.0000    0.0000 C   0  0  0  0  0  0  0  0  0  0  0  0
    0.0000    0.0000    0.0000 C   0  0  0  0  0  0  0  0  0  0  0  0
    0.0000    0.0000    0.0000 C   0  0  0  0  0  0  0  0  0  0  0  0
    0.0000    0.0000    0.0000 O   0  0  0  0  0  0  0  0  0  0  0  0
    0.0000    0.0000    0.0000 O   0  0  0  0  0  0  0  0  0  0  0  0
    0.0000    0.0000    0.0000 C   0  0  0  0  0  0  0  0  0  0  0  0
    0.0000    0.0000    0.0000 C   0  0  0  0  0  0  0  0  0  0  0  0
    0.0000    0.0000    0.0000 C   0  0  0  0  0  0  0  0  0  0  0  0
    0.0000    0.0000    0.0000 C   0  0  0  0  0  0  0  0  0  0  0  0
    0.0000    0.0000    0.0000 F   0  0  0  0  0  0  0  0  0  0  0  0
    0.0000    0.0000    0.0000 C   0  0  0  0  0  0  0  0  0  0  0  0
    0.0000    0.0000    0.0000 C   0  0  0  0  0  0  0  0  0  0  0  0
  1  2  1  0
  2  3  2  0
  3  4  1  0
  4  5  1  0
  4  6  2  0
  6  7  1  0
  7  8  1  0
  7  9  2  0
  9 10  1  0
 10 11  1  0
 11 12  1  0
 11 13  1  0
 13 14  2  0
 13 15  1  0
 15 16  1  0
 16 17  1  0
 17 18  2  0
 18 19  1  0
 19 20  2  0
 20 21  1  0
 21 22  2  0
 22 23  1  0
 23 24  1  0
 24 25  1  0
 25 26  2  0
 25 27  1  0
 19 28  1  0
 28 29  2  0
 29 30  1  0
 30 31  2  0
 31 32  1  0
 31 33  1  0
 33 34  2  0
  9  2  1  0
 24 15  1  0
 22 17  1  0
 34 28  1  0
M  END
>  <pIC50>  (211) 
6.23

>  <ChEMBL_ID>  (211) 
CHEMBL2114978

>  <document_journal>  (211) 
Bioorg. Med. Chem. Lett.

>  <bao_endpoint>  (211) 
BAO_0000190

>  <potential_duplicate>  (211) 
False

>  <uo_units>  (211) 
UO_0000065

>  <canonical_smiles>  (211) 
Cc1cc(O)cc(C)c1C[C@H](N)C(=O)N2Cc3cc(ccc3C[C@H]2C(=O)O)c4ccc(F)cc4

>  <parent_molecule_chembl_id>  (211) 
CHEMBL2114978

>  <assay_type>  (211) 
B

>  <src_id>  (211) 
1

>  <ligand_efficiency>  (211) 
{u'le': u'0.25', u'bei': u'13.47', u'sei': u'6', u'lle': u'4.32'}

>  <standard_flag>  (211) 
True

>  <molecule_chembl_id>  (211) 
CHEMBL2114978

>  <target_organism>  (211) 
Homo sapiens

>  <standard_units>  (211) 
nM

>  <record_id>  (211) 
76668

>  <document_chembl_id>  (211) 
CHEMBL1132761

>  <bao_format>  (211) 
BAO_0000357

>  <data_validity_description>  (211) 
None

>  <activity_id>  (211) 
1037329

>  <standard_type>  (211) 
IC50

>  <target_chembl_id>  (211) 
CHEMBL233

>  <data_validity_comment>  (211) 
None

>  <published_value>  (211) 
587

>  <document_year>  (211) 
2000

>  <target_pref_name>  (211) 
Mu opioid receptor

>  <assay_chembl_id>  (211) 
CHEMBL757307

>  <standard_relation>  (211) 
=

>  <assay_description>  (211) 
Compound was evaluated for binding affinity towards Opioid receptor mu 1 by displacing 125 I-FK-33824

>  <published_relation>  (211) 
=

>  <standard_value>  (211) 
587

>  <qudt_units>  (211) 
http://www.openphacts.org/units/Nanomolar

>  <target_tax_id>  (211) 
9606

>  <bao_label>  (211) 
single protein format

>  <published_units>  (211) 
nM

>  <pchembl_value>  (211) 
6.23

>  <published_type>  (211) 
IC50

>  <activity_comment>  (211) 
None

$$$$

     RDKit          

 35 38  0  0  0  0  0  0  0  0999 V2000
    0.0000    0.0000    0.0000 C   0  0  0  0  0  0  0  0  0  0  0  0
    0.0000    0.0000    0.0000 C   0  0  0  0  0  0  0  0  0  0  0  0
    0.0000    0.0000    0.0000 C   0  0  0  0  0  0  0  0  0  0  0  0
    0.0000    0.0000    0.0000 C   0  0  0  0  0  0  0  0  0  0  0  0
    0.0000    0.0000    0.0000 O   0  0  0  0  0  0  0  0  0  0  0  0
    0.0000    0.0000    0.0000 C   0  0  0  0  0  0  0  0  0  0  0  0
    0.0000    0.0000    0.0000 C   0  0  0  0  0  0  0  0  0  0  0  0
    0.0000    0.0000    0.0000 C   0  0  0  0  0  0  0  0  0  0  0  0
    0.0000    0.0000    0.0000 C   0  0  0  0  0  0  0  0  0  0  0  0
    0.0000    0.0000    0.0000 C   0  0  0  0  0  0  0  0  0  0  0  0
    0.0000    0.0000    0.0000 C   0  0  0  0  0  0  0  0  0  0  0  0
    0.0000    0.0000    0.0000 N   0  0  0  0  0  0  0  0  0  0  0  0
    0.0000    0.0000    0.0000 C   0  0  0  0  0  0  0  0  0  0  0  0
    0.0000    0.0000    0.0000 O   0  0  0  0  0  0  0  0  0  0  0  0
    0.0000    0.0000    0.0000 N   0  0  0  0  0  0  0  0  0  0  0  0
    0.0000    0.0000    0.0000 C   0  0  0  0  0  0  0  0  0  0  0  0
    0.0000    0.0000    0.0000 C   0  0  0  0  0  0  0  0  0  0  0  0
    0.0000    0.0000    0.0000 C   0  0  0  0  0  0  0  0  0  0  0  0
    0.0000    0.0000    0.0000 C   0  0  0  0  0  0  0  0  0  0  0  0
    0.0000    0.0000    0.0000 C   0  0  0  0  0  0  0  0  0  0  0  0
    0.0000    0.0000    0.0000 C   0  0  0  0  0  0  0  0  0  0  0  0
    0.0000    0.0000    0.0000 C   0  0  0  0  0  0  0  0  0  0  0  0
    0.0000    0.0000    0.0000 C   0  0  0  0  0  0  0  0  0  0  0  0
    0.0000    0.0000    0.0000 C   0  0  0  0  0  0  0  0  0  0  0  0
    0.0000    0.0000    0.0000 C   0  0  0  0  0  0  0  0  0  0  0  0
    0.0000    0.0000    0.0000 N   0  0  0  0  0  0  0  0  0  0  0  0
    0.0000    0.0000    0.0000 C   0  0  0  0  0  0  0  0  0  0  0  0
    0.0000    0.0000    0.0000 S   0  0  0  0  0  0  0  0  0  0  0  0
    0.0000    0.0000    0.0000 N   0  0  0  0  0  0  0  0  0  0  0  0
    0.0000    0.0000    0.0000 C   0  0  0  0  0  0  0  0  0  0  0  0
    0.0000    0.0000    0.0000 C   0  0  0  0  0  0  0  0  0  0  0  0
    0.0000    0.0000    0.0000 C   0  0  0  0  0  0  0  0  0  0  0  0
    0.0000    0.0000    0.0000 C   0  0  0  0  0  0  0  0  0  0  0  0
    0.0000    0.0000    0.0000 C   0  0  0  0  0  0  0  0  0  0  0  0
    0.0000    0.0000    0.0000 C   0  0  0  0  0  0  0  0  0  0  0  0
  1  2  1  0
  2  3  2  0
  3  4  1  0
  4  5  1  0
  4  6  2  0
  6  7  1  0
  7  8  1  0
  7  9  2  0
  9 10  1  0
 10 11  1  0
 11 12  1  0
 11 13  1  0
 13 14  2  0
 13 15  1  0
 15 16  1  0
 16 17  1  0
 17 18  2  0
 18 19  1  0
 19 20  2  0
 20 21  1  0
 21 22  2  0
 22 23  1  0
 23 24  1  0
 24 25  1  0
 25 26  1  0
 26 27  2  0
 27 28  1  0
 27 29  1  0
 29 30  1  0
 30 31  2  0
 31 32  1  0
 32 33  2  0
 33 34  1  0
 34 35  2  0
  9  2  1  0
 24 15  1  0
 22 17  1  0
 35 30  1  0
M  END
>  <pIC50>  (212) 
8.27

>  <ChEMBL_ID>  (212) 
CHEMBL75802

>  <document_journal>  (212) 
J. Med. Chem.

>  <bao_endpoint>  (212) 
BAO_0000190

>  <potential_duplicate>  (212) 
False

>  <uo_units>  (212) 
UO_0000065

>  <canonical_smiles>  (212) 
Cc1cc(O)cc(C)c1C[C@H](N)C(=O)N2Cc3ccccc3C[C@H]2C\N=C(\S)/Nc4ccccc4

>  <parent_molecule_chembl_id>  (212) 
CHEMBL75802

>  <assay_type>  (212) 
B

>  <src_id>  (212) 
1

>  <ligand_efficiency>  (212) 
{u'le': u'0.32', u'bei': u'16.92', u'sei': u'6.37', u'lle': u'3.15'}

>  <standard_flag>  (212) 
True

>  <molecule_chembl_id>  (212) 
CHEMBL75802

>  <target_organism>  (212) 
Homo sapiens

>  <standard_units>  (212) 
nM

>  <record_id>  (212) 
140318

>  <document_chembl_id>  (212) 
CHEMBL1134689

>  <bao_format>  (212) 
BAO_0000357

>  <data_validity_description>  (212) 
None

>  <activity_id>  (212) 
1038641

>  <standard_type>  (212) 
IC50

>  <target_chembl_id>  (212) 
CHEMBL233

>  <data_validity_comment>  (212) 
None

>  <published_value>  (212) 
5.4

>  <document_year>  (212) 
2001

>  <target_pref_name>  (212) 
Mu opioid receptor

>  <assay_chembl_id>  (212) 
CHEMBL757823

>  <standard_relation>  (212) 
=

>  <assay_description>  (212) 
Binding affinity at cloned human mu-opioid receptor

>  <published_relation>  (212) 
=

>  <standard_value>  (212) 
5.4

>  <qudt_units>  (212) 
http://www.openphacts.org/units/Nanomolar

>  <target_tax_id>  (212) 
9606

>  <bao_label>  (212) 
single protein format

>  <published_units>  (212) 
nM

>  <pchembl_value>  (212) 
8.27

>  <published_type>  (212) 
IC50

>  <activity_comment>  (212) 
None

$$$$

     RDKit          

 32 35  0  0  0  0  0  0  0  0999 V2000
    0.0000    0.0000    0.0000 C   0  0  0  0  0  0  0  0  0  0  0  0
    0.0000    0.0000    0.0000 C   0  0  0  0  0  0  0  0  0  0  0  0
    0.0000    0.0000    0.0000 C   0  0  0  0  0  0  0  0  0  0  0  0
    0.0000    0.0000    0.0000 C   0  0  0  0  0  0  0  0  0  0  0  0
    0.0000    0.0000    0.0000 O   0  0  0  0  0  0  0  0  0  0  0  0
    0.0000    0.0000    0.0000 C   0  0  0  0  0  0  0  0  0  0  0  0
    0.0000    0.0000    0.0000 C   0  0  0  0  0  0  0  0  0  0  0  0
    0.0000    0.0000    0.0000 C   0  0  0  0  0  0  0  0  0  0  0  0
    0.0000    0.0000    0.0000 C   0  0  0  0  0  0  0  0  0  0  0  0
    0.0000    0.0000    0.0000 C   0  0  0  0  0  0  0  0  0  0  0  0
    0.0000    0.0000    0.0000 C   0  0  0  0  0  0  0  0  0  0  0  0
    0.0000    0.0000    0.0000 N   0  0  0  0  0  0  0  0  0  0  0  0
    0.0000    0.0000    0.0000 C   0  0  0  0  0  0  0  0  0  0  0  0
    0.0000    0.0000    0.0000 O   0  0  0  0  0  0  0  0  0  0  0  0
    0.0000    0.0000    0.0000 N   0  0  0  0  0  0  0  0  0  0  0  0
    0.0000    0.0000    0.0000 C   0  0  0  0  0  0  0  0  0  0  0  0
    0.0000    0.0000    0.0000 C   0  0  0  0  0  0  0  0  0  0  0  0
    0.0000    0.0000    0.0000 C   0  0  0  0  0  0  0  0  0  0  0  0
    0.0000    0.0000    0.0000 C   0  0  0  0  0  0  0  0  0  0  0  0
    0.0000    0.0000    0.0000 C   0  0  0  0  0  0  0  0  0  0  0  0
    0.0000    0.0000    0.0000 C   0  0  0  0  0  0  0  0  0  0  0  0
    0.0000    0.0000    0.0000 C   0  0  0  0  0  0  0  0  0  0  0  0
    0.0000    0.0000    0.0000 C   0  0  0  0  0  0  0  0  0  0  0  0
    0.0000    0.0000    0.0000 C   0  0  0  0  0  0  0  0  0  0  0  0
    0.0000    0.0000    0.0000 C   0  0  0  0  0  0  0  0  0  0  0  0
    0.0000    0.0000    0.0000 O   0  0  0  0  0  0  0  0  0  0  0  0
    0.0000    0.0000    0.0000 O   0  0  0  0  0  0  0  0  0  0  0  0
    0.0000    0.0000    0.0000 C   0  0  0  0  0  0  0  0  0  0  0  0
    0.0000    0.0000    0.0000 C   0  0  0  0  0  0  0  0  0  0  0  0
    0.0000    0.0000    0.0000 C   0  0  0  0  0  0  0  0  0  0  0  0
    0.0000    0.0000    0.0000 S   0  0  0  0  0  0  0  0  0  0  0  0
    0.0000    0.0000    0.0000 C   0  0  0  0  0  0  0  0  0  0  0  0
  1  2  1  0
  2  3  2  0
  3  4  1  0
  4  5  1  0
  4  6  2  0
  6  7  1  0
  7  8  1  0
  7  9  2  0
  9 10  1  0
 10 11  1  0
 11 12  1  0
 11 13  1  0
 13 14  2  0
 13 15  1  0
 15 16  1  0
 16 17  1  0
 17 18  2  0
 18 19  1  0
 19 20  2  0
 20 21  1  0
 21 22  2  0
 22 23  1  0
 23 24  1  0
 24 25  1  0
 25 26  2  0
 25 27  1  0
 19 28  1  0
 28 29  1  0
 29 30  2  0
 30 31  1  0
 31 32  1  0
  9  2  1  0
 24 15  1  0
 22 17  1  0
 32 28  2  0
M  END
>  <pIC50>  (213) 
6.85

>  <ChEMBL_ID>  (213) 
CHEMBL418080

>  <document_journal>  (213) 
Bioorg. Med. Chem. Lett.

>  <bao_endpoint>  (213) 
BAO_0000190

>  <potential_duplicate>  (213) 
False

>  <uo_units>  (213) 
UO_0000065

>  <canonical_smiles>  (213) 
Cc1cc(O)cc(C)c1CC(N)C(=O)N2Cc3cc(ccc3C[C@H]2C(=O)O)c4ccsc4

>  <parent_molecule_chembl_id>  (213) 
CHEMBL418080

>  <assay_type>  (213) 
B

>  <src_id>  (213) 
1

>  <ligand_efficiency>  (213) 
{u'le': u'0.29', u'bei': u'15.2', u'sei': u'5.18', u'lle': u'5.48'}

>  <standard_flag>  (213) 
True

>  <molecule_chembl_id>  (213) 
CHEMBL418080

>  <target_organism>  (213) 
Homo sapiens

>  <standard_units>  (213) 
nM

>  <record_id>  (213) 
76665

>  <document_chembl_id>  (213) 
CHEMBL1132761

>  <bao_format>  (213) 
BAO_0000357

>  <data_validity_description>  (213) 
None

>  <activity_id>  (213) 
1039631

>  <standard_type>  (213) 
IC50

>  <target_chembl_id>  (213) 
CHEMBL233

>  <data_validity_comment>  (213) 
None

>  <published_value>  (213) 
142

>  <document_year>  (213) 
2000

>  <target_pref_name>  (213) 
Mu opioid receptor

>  <assay_chembl_id>  (213) 
CHEMBL757307

>  <standard_relation>  (213) 
=

>  <assay_description>  (213) 
Compound was evaluated for binding affinity towards Opioid receptor mu 1 by displacing 125 I-FK-33824

>  <published_relation>  (213) 
=

>  <standard_value>  (213) 
142

>  <qudt_units>  (213) 
http://www.openphacts.org/units/Nanomolar

>  <target_tax_id>  (213) 
9606

>  <bao_label>  (213) 
single protein format

>  <published_units>  (213) 
nM

>  <pchembl_value>  (213) 
6.85

>  <published_type>  (213) 
IC50

>  <activity_comment>  (213) 
None

$$$$

     RDKit          

 26 28  0  0  0  0  0  0  0  0999 V2000
    0.0000    0.0000    0.0000 C   0  0  0  0  0  0  0  0  0  0  0  0
    0.0000    0.0000    0.0000 C   0  0  0  0  0  0  0  0  0  0  0  0
    0.0000    0.0000    0.0000 C   0  0  0  0  0  0  0  0  0  0  0  0
    0.0000    0.0000    0.0000 C   0  0  0  0  0  0  0  0  0  0  0  0
    0.0000    0.0000    0.0000 O   0  0  0  0  0  0  0  0  0  0  0  0
    0.0000    0.0000    0.0000 C   0  0  0  0  0  0  0  0  0  0  0  0
    0.0000    0.0000    0.0000 C   0  0  0  0  0  0  0  0  0  0  0  0
    0.0000    0.0000    0.0000 C   0  0  0  0  0  0  0  0  0  0  0  0
    0.0000    0.0000    0.0000 C   0  0  0  0  0  0  0  0  0  0  0  0
    0.0000    0.0000    0.0000 C   0  0  0  0  0  0  0  0  0  0  0  0
    0.0000    0.0000    0.0000 C   0  0  0  0  0  0  0  0  0  0  0  0
    0.0000    0.0000    0.0000 N   0  0  0  0  0  0  0  0  0  0  0  0
    0.0000    0.0000    0.0000 C   0  0  0  0  0  0  0  0  0  0  0  0
    0.0000    0.0000    0.0000 O   0  0  0  0  0  0  0  0  0  0  0  0
    0.0000    0.0000    0.0000 N   0  0  0  0  0  0  0  0  0  0  0  0
    0.0000    0.0000    0.0000 C   0  0  0  0  0  0  0  0  0  0  0  0
    0.0000    0.0000    0.0000 C   0  0  0  0  0  0  0  0  0  0  0  0
    0.0000    0.0000    0.0000 C   0  0  0  0  0  0  0  0  0  0  0  0
    0.0000    0.0000    0.0000 C   0  0  0  0  0  0  0  0  0  0  0  0
    0.0000    0.0000    0.0000 C   0  0  0  0  0  0  0  0  0  0  0  0
    0.0000    0.0000    0.0000 C   0  0  0  0  0  0  0  0  0  0  0  0
    0.0000    0.0000    0.0000 C   0  0  0  0  0  0  0  0  0  0  0  0
    0.0000    0.0000    0.0000 C   0  0  0  0  0  0  0  0  0  0  0  0
    0.0000    0.0000    0.0000 C   0  0  0  0  0  0  0  0  0  0  0  0
    0.0000    0.0000    0.0000 C   0  0  0  0  0  0  0  0  0  0  0  0
    0.0000    0.0000    0.0000 O   0  0  0  0  0  0  0  0  0  0  0  0
  1  2  1  0
  2  3  2  0
  3  4  1  0
  4  5  1  0
  4  6  2  0
  6  7  1  0
  7  8  1  0
  7  9  2  0
  9 10  1  0
 10 11  1  0
 11 12  1  0
 11 13  1  0
 13 14  2  0
 13 15  1  0
 15 16  1  0
 16 17  1  0
 17 18  2  0
 18 19  1  0
 19 20  2  0
 20 21  1  0
 21 22  2  0
 22 23  1  0
 23 24  1  0
 24 25  1  0
 25 26  1  0
  9  2  1  0
 24 15  1  0
 22 17  1  0
M  END
>  <pIC50>  (214) 
6.38

>  <ChEMBL_ID>  (214) 
CHEMBL308128

>  <document_journal>  (214) 
J. Med. Chem.

>  <bao_endpoint>  (214) 
BAO_0000190

>  <potential_duplicate>  (214) 
False

>  <uo_units>  (214) 
UO_0000065

>  <canonical_smiles>  (214) 
Cc1cc(O)cc(C)c1C[C@H](N)C(=O)N2Cc3ccccc3C[C@H]2CO

>  <parent_molecule_chembl_id>  (214) 
CHEMBL308128

>  <assay_type>  (214) 
B

>  <src_id>  (214) 
1

>  <ligand_efficiency>  (214) 
{u'le': u'0.33', u'bei': u'17.99', u'sei': u'7.35', u'lle': u'3.84'}

>  <standard_flag>  (214) 
True

>  <molecule_chembl_id>  (214) 
CHEMBL308128

>  <target_organism>  (214) 
Homo sapiens

>  <standard_units>  (214) 
nM

>  <record_id>  (214) 
140305

>  <document_chembl_id>  (214) 
CHEMBL1134689

>  <bao_format>  (214) 
BAO_0000357

>  <data_validity_description>  (214) 
None

>  <activity_id>  (214) 
1039835

>  <standard_type>  (214) 
IC50

>  <target_chembl_id>  (214) 
CHEMBL233

>  <data_validity_comment>  (214) 
None

>  <published_value>  (214) 
421

>  <document_year>  (214) 
2001

>  <target_pref_name>  (214) 
Mu opioid receptor

>  <assay_chembl_id>  (214) 
CHEMBL757823

>  <standard_relation>  (214) 
=

>  <assay_description>  (214) 
Binding affinity at cloned human mu-opioid receptor

>  <published_relation>  (214) 
=

>  <standard_value>  (214) 
421

>  <qudt_units>  (214) 
http://www.openphacts.org/units/Nanomolar

>  <target_tax_id>  (214) 
9606

>  <bao_label>  (214) 
single protein format

>  <published_units>  (214) 
nM

>  <pchembl_value>  (214) 
6.38

>  <published_type>  (214) 
IC50

>  <activity_comment>  (214) 
None

$$$$

     RDKit          

 29 31  0  0  0  0  0  0  0  0999 V2000
    0.0000    0.0000    0.0000 C   0  0  0  0  0  0  0  0  0  0  0  0
    0.0000    0.0000    0.0000 C   0  0  0  0  0  0  0  0  0  0  0  0
    0.0000    0.0000    0.0000 C   0  0  0  0  0  0  0  0  0  0  0  0
    0.0000    0.0000    0.0000 C   0  0  0  0  0  0  0  0  0  0  0  0
    0.0000    0.0000    0.0000 O   0  0  0  0  0  0  0  0  0  0  0  0
    0.0000    0.0000    0.0000 C   0  0  0  0  0  0  0  0  0  0  0  0
    0.0000    0.0000    0.0000 C   0  0  0  0  0  0  0  0  0  0  0  0
    0.0000    0.0000    0.0000 C   0  0  0  0  0  0  0  0  0  0  0  0
    0.0000    0.0000    0.0000 C   0  0  0  0  0  0  0  0  0  0  0  0
    0.0000    0.0000    0.0000 C   0  0  0  0  0  0  0  0  0  0  0  0
    0.0000    0.0000    0.0000 C   0  0  0  0  0  0  0  0  0  0  0  0
    0.0000    0.0000    0.0000 N   0  0  0  0  0  0  0  0  0  0  0  0
    0.0000    0.0000    0.0000 C   0  0  0  0  0  0  0  0  0  0  0  0
    0.0000    0.0000    0.0000 O   0  0  0  0  0  0  0  0  0  0  0  0
    0.0000    0.0000    0.0000 N   0  0  0  0  0  0  0  0  0  0  0  0
    0.0000    0.0000    0.0000 C   0  0  0  0  0  0  0  0  0  0  0  0
    0.0000    0.0000    0.0000 C   0  0  0  0  0  0  0  0  0  0  0  0
    0.0000    0.0000    0.0000 C   0  0  0  0  0  0  0  0  0  0  0  0
    0.0000    0.0000    0.0000 C   0  0  0  0  0  0  0  0  0  0  0  0
    0.0000    0.0000    0.0000 C   0  0  0  0  0  0  0  0  0  0  0  0
    0.0000    0.0000    0.0000 C   0  0  0  0  0  0  0  0  0  0  0  0
    0.0000    0.0000    0.0000 C   0  0  0  0  0  0  0  0  0  0  0  0
    0.0000    0.0000    0.0000 C   0  0  0  0  0  0  0  0  0  0  0  0
    0.0000    0.0000    0.0000 C   0  0  0  0  0  0  0  0  0  0  0  0
    0.0000    0.0000    0.0000 C   0  0  0  0  0  0  0  0  0  0  0  0
    0.0000    0.0000    0.0000 O   0  0  0  0  0  0  0  0  0  0  0  0
    0.0000    0.0000    0.0000 C   0  0  0  0  0  0  0  0  0  0  0  0
    0.0000    0.0000    0.0000 C   0  0  0  0  0  0  0  0  0  0  0  0
    0.0000    0.0000    0.0000 C   0  0  0  0  0  0  0  0  0  0  0  0
  1  2  1  0
  2  3  2  0
  3  4  1  0
  4  5  1  0
  4  6  2  0
  6  7  1  0
  7  8  1  0
  7  9  2  0
  9 10  1  0
 10 11  1  0
 11 12  1  0
 11 13  1  0
 13 14  2  0
 13 15  1  0
 15 16  1  0
 16 17  1  0
 17 18  2  0
 18 19  1  0
 19 20  2  0
 20 21  1  0
 21 22  2  0
 22 23  1  0
 23 24  1  0
 24 25  1  0
 25 26  1  0
 26 27  1  0
 27 28  1  0
 28 29  2  0
  9  2  1  0
 24 15  1  0
 22 17  1  0
M  END
>  <pIC50>  (215) 
6.97

>  <ChEMBL_ID>  (215) 
CHEMBL80319

>  <document_journal>  (215) 
J. Med. Chem.

>  <bao_endpoint>  (215) 
BAO_0000190

>  <potential_duplicate>  (215) 
False

>  <uo_units>  (215) 
UO_0000065

>  <canonical_smiles>  (215) 
Cc1cc(O)cc(C)c1C[C@H](N)C(=O)N2Cc3ccccc3C[C@H]2COCC=C

>  <parent_molecule_chembl_id>  (215) 
CHEMBL80319

>  <assay_type>  (215) 
B

>  <src_id>  (215) 
1

>  <ligand_efficiency>  (215) 
{u'le': u'0.33', u'bei': u'17.66', u'sei': u'9.19', u'lle': u'3.41'}

>  <standard_flag>  (215) 
True

>  <molecule_chembl_id>  (215) 
CHEMBL80319

>  <target_organism>  (215) 
Homo sapiens

>  <standard_units>  (215) 
nM

>  <record_id>  (215) 
140307

>  <document_chembl_id>  (215) 
CHEMBL1134689

>  <bao_format>  (215) 
BAO_0000357

>  <data_validity_description>  (215) 
None

>  <activity_id>  (215) 
1039842

>  <standard_type>  (215) 
IC50

>  <target_chembl_id>  (215) 
CHEMBL233

>  <data_validity_comment>  (215) 
None

>  <published_value>  (215) 
108

>  <document_year>  (215) 
2001

>  <target_pref_name>  (215) 
Mu opioid receptor

>  <assay_chembl_id>  (215) 
CHEMBL757823

>  <standard_relation>  (215) 
=

>  <assay_description>  (215) 
Binding affinity at cloned human mu-opioid receptor

>  <published_relation>  (215) 
=

>  <standard_value>  (215) 
108

>  <qudt_units>  (215) 
http://www.openphacts.org/units/Nanomolar

>  <target_tax_id>  (215) 
9606

>  <bao_label>  (215) 
single protein format

>  <published_units>  (215) 
nM

>  <pchembl_value>  (215) 
6.97

>  <published_type>  (215) 
IC50

>  <activity_comment>  (215) 
None

$$$$

     RDKit          

 28 30  0  0  0  0  0  0  0  0999 V2000
    0.0000    0.0000    0.0000 C   0  0  0  0  0  0  0  0  0  0  0  0
    0.0000    0.0000    0.0000 C   0  0  0  0  0  0  0  0  0  0  0  0
    0.0000    0.0000    0.0000 C   0  0  0  0  0  0  0  0  0  0  0  0
    0.0000    0.0000    0.0000 C   0  0  0  0  0  0  0  0  0  0  0  0
    0.0000    0.0000    0.0000 O   0  0  0  0  0  0  0  0  0  0  0  0
    0.0000    0.0000    0.0000 C   0  0  0  0  0  0  0  0  0  0  0  0
    0.0000    0.0000    0.0000 C   0  0  0  0  0  0  0  0  0  0  0  0
    0.0000    0.0000    0.0000 C   0  0  0  0  0  0  0  0  0  0  0  0
    0.0000    0.0000    0.0000 C   0  0  0  0  0  0  0  0  0  0  0  0
    0.0000    0.0000    0.0000 C   0  0  0  0  0  0  0  0  0  0  0  0
    0.0000    0.0000    0.0000 C   0  0  0  0  0  0  0  0  0  0  0  0
    0.0000    0.0000    0.0000 N   0  0  0  0  0  0  0  0  0  0  0  0
    0.0000    0.0000    0.0000 C   0  0  0  0  0  0  0  0  0  0  0  0
    0.0000    0.0000    0.0000 O   0  0  0  0  0  0  0  0  0  0  0  0
    0.0000    0.0000    0.0000 N   0  0  0  0  0  0  0  0  0  0  0  0
    0.0000    0.0000    0.0000 C   0  0  0  0  0  0  0  0  0  0  0  0
    0.0000    0.0000    0.0000 C   0  0  0  0  0  0  0  0  0  0  0  0
    0.0000    0.0000    0.0000 C   0  0  0  0  0  0  0  0  0  0  0  0
    0.0000    0.0000    0.0000 C   0  0  0  0  0  0  0  0  0  0  0  0
    0.0000    0.0000    0.0000 C   0  0  0  0  0  0  0  0  0  0  0  0
    0.0000    0.0000    0.0000 C   0  0  0  0  0  0  0  0  0  0  0  0
    0.0000    0.0000    0.0000 C   0  0  0  0  0  0  0  0  0  0  0  0
    0.0000    0.0000    0.0000 C   0  0  0  0  0  0  0  0  0  0  0  0
    0.0000    0.0000    0.0000 C   0  0  0  0  0  0  0  0  0  0  0  0
    0.0000    0.0000    0.0000 C   0  0  0  0  0  0  0  0  0  0  0  0
    0.0000    0.0000    0.0000 N   0  0  0  0  0  0  0  0  0  0  0  0
    0.0000    0.0000    0.0000 N   0  0  0  0  0  0  0  0  0  0  0  0
    0.0000    0.0000    0.0000 N   0  0  0  0  0  0  0  0  0  0  0  0
  1  2  1  0
  2  3  2  0
  3  4  1  0
  4  5  1  0
  4  6  2  0
  6  7  1  0
  7  8  1  0
  7  9  2  0
  9 10  1  0
 10 11  1  0
 11 12  1  0
 11 13  1  0
 13 14  2  0
 13 15  1  0
 15 16  1  0
 16 17  1  0
 17 18  2  0
 18 19  1  0
 19 20  2  0
 20 21  1  0
 21 22  2  0
 22 23  1  0
 23 24  1  0
 24 25  1  0
 25 26  1  0
 26 27  2  3
 27 28  2  0
  9  2  1  0
 24 15  1  0
 22 17  1  0
M  CHG  2  27   1  28  -1
M  END
>  <pIC50>  (216) 
7.02

>  <ChEMBL_ID>  (216) 
CHEMBL76846

>  <document_journal>  (216) 
J. Med. Chem.

>  <bao_endpoint>  (216) 
BAO_0000190

>  <potential_duplicate>  (216) 
False

>  <uo_units>  (216) 
UO_0000065

>  <canonical_smiles>  (216) 
Cc1cc(O)cc(C)c1C[C@H](N)C(=O)N2Cc3ccccc3C[C@H]2CN=[N+]=[N-]

>  <parent_molecule_chembl_id>  (216) 
CHEMBL76846

>  <assay_type>  (216) 
B

>  <src_id>  (216) 
1

>  <ligand_efficiency>  (216) 
{u'le': u'0.34', u'bei': u'18.51', u'sei': u'6.04', u'lle': u'3.18'}

>  <standard_flag>  (216) 
True

>  <molecule_chembl_id>  (216) 
CHEMBL76846

>  <target_organism>  (216) 
Homo sapiens

>  <standard_units>  (216) 
nM

>  <record_id>  (216) 
140328

>  <document_chembl_id>  (216) 
CHEMBL1134689

>  <bao_format>  (216) 
BAO_0000357

>  <data_validity_description>  (216) 
None

>  <activity_id>  (216) 
1039848

>  <standard_type>  (216) 
IC50

>  <target_chembl_id>  (216) 
CHEMBL233

>  <data_validity_comment>  (216) 
None

>  <published_value>  (216) 
94.6

>  <document_year>  (216) 
2001

>  <target_pref_name>  (216) 
Mu opioid receptor

>  <assay_chembl_id>  (216) 
CHEMBL757823

>  <standard_relation>  (216) 
=

>  <assay_description>  (216) 
Binding affinity at cloned human mu-opioid receptor

>  <published_relation>  (216) 
=

>  <standard_value>  (216) 
94.6

>  <qudt_units>  (216) 
http://www.openphacts.org/units/Nanomolar

>  <target_tax_id>  (216) 
9606

>  <bao_label>  (216) 
single protein format

>  <published_units>  (216) 
nM

>  <pchembl_value>  (216) 
7.02

>  <published_type>  (216) 
IC50

>  <activity_comment>  (216) 
None

$$$$

     RDKit          

 29 31  0  0  0  0  0  0  0  0999 V2000
    0.0000    0.0000    0.0000 C   0  0  0  0  0  0  0  0  0  0  0  0
    0.0000    0.0000    0.0000 C   0  0  0  0  0  0  0  0  0  0  0  0
    0.0000    0.0000    0.0000 C   0  0  0  0  0  0  0  0  0  0  0  0
    0.0000    0.0000    0.0000 C   0  0  0  0  0  0  0  0  0  0  0  0
    0.0000    0.0000    0.0000 O   0  0  0  0  0  0  0  0  0  0  0  0
    0.0000    0.0000    0.0000 C   0  0  0  0  0  0  0  0  0  0  0  0
    0.0000    0.0000    0.0000 C   0  0  0  0  0  0  0  0  0  0  0  0
    0.0000    0.0000    0.0000 C   0  0  0  0  0  0  0  0  0  0  0  0
    0.0000    0.0000    0.0000 C   0  0  0  0  0  0  0  0  0  0  0  0
    0.0000    0.0000    0.0000 C   0  0  0  0  0  0  0  0  0  0  0  0
    0.0000    0.0000    0.0000 C   0  0  0  0  0  0  0  0  0  0  0  0
    0.0000    0.0000    0.0000 N   0  0  0  0  0  0  0  0  0  0  0  0
    0.0000    0.0000    0.0000 C   0  0  0  0  0  0  0  0  0  0  0  0
    0.0000    0.0000    0.0000 O   0  0  0  0  0  0  0  0  0  0  0  0
    0.0000    0.0000    0.0000 N   0  0  0  0  0  0  0  0  0  0  0  0
    0.0000    0.0000    0.0000 C   0  0  0  0  0  0  0  0  0  0  0  0
    0.0000    0.0000    0.0000 C   0  0  0  0  0  0  0  0  0  0  0  0
    0.0000    0.0000    0.0000 C   0  0  0  0  0  0  0  0  0  0  0  0
    0.0000    0.0000    0.0000 C   0  0  0  0  0  0  0  0  0  0  0  0
    0.0000    0.0000    0.0000 C   0  0  0  0  0  0  0  0  0  0  0  0
    0.0000    0.0000    0.0000 C   0  0  0  0  0  0  0  0  0  0  0  0
    0.0000    0.0000    0.0000 C   0  0  0  0  0  0  0  0  0  0  0  0
    0.0000    0.0000    0.0000 C   0  0  0  0  0  0  0  0  0  0  0  0
    0.0000    0.0000    0.0000 C   0  0  0  0  0  0  0  0  0  0  0  0
    0.0000    0.0000    0.0000 C   0  0  0  0  0  0  0  0  0  0  0  0
    0.0000    0.0000    0.0000 N   0  0  0  0  0  0  0  0  0  0  0  0
    0.0000    0.0000    0.0000 C   0  0  0  0  0  0  0  0  0  0  0  0
    0.0000    0.0000    0.0000 N   0  0  0  0  0  0  0  0  0  0  0  0
    0.0000    0.0000    0.0000 N   0  0  0  0  0  0  0  0  0  0  0  0
  1  2  1  0
  2  3  2  0
  3  4  1  0
  4  5  1  0
  4  6  2  0
  6  7  1  0
  7  8  1  0
  7  9  2  0
  9 10  1  0
 10 11  1  0
 11 12  1  0
 11 13  1  0
 13 14  2  0
 13 15  1  0
 15 16  1  0
 16 17  1  0
 17 18  2  0
 18 19  1  0
 19 20  2  0
 20 21  1  0
 21 22  2  0
 22 23  1  0
 23 24  1  0
 24 25  1  0
 25 26  1  0
 26 27  2  3
 27 28  1  0
 27 29  1  0
  9  2  1  0
 24 15  1  0
 22 17  1  0
M  END
>  <pIC50>  (217) 
7.89

>  <ChEMBL_ID>  (217) 
CHEMBL309236

>  <document_journal>  (217) 
J. Med. Chem.

>  <bao_endpoint>  (217) 
BAO_0000190

>  <potential_duplicate>  (217) 
False

>  <uo_units>  (217) 
UO_0000065

>  <canonical_smiles>  (217) 
Cc1cc(O)cc(C)c1C[C@H](N)C(=O)N2Cc3ccccc3C[C@H]2CN=C(N)N

>  <parent_molecule_chembl_id>  (217) 
CHEMBL309236

>  <assay_type>  (217) 
B

>  <src_id>  (217) 
1

>  <ligand_efficiency>  (217) 
{u'le': u'0.37', u'bei': u'19.96', u'sei': u'6.03', u'lle': u'5.78'}

>  <standard_flag>  (217) 
True

>  <molecule_chembl_id>  (217) 
CHEMBL309236

>  <target_organism>  (217) 
Homo sapiens

>  <standard_units>  (217) 
nM

>  <record_id>  (217) 
140326

>  <document_chembl_id>  (217) 
CHEMBL1134689

>  <bao_format>  (217) 
BAO_0000357

>  <data_validity_description>  (217) 
None

>  <activity_id>  (217) 
1039855

>  <standard_type>  (217) 
IC50

>  <target_chembl_id>  (217) 
CHEMBL233

>  <data_validity_comment>  (217) 
None

>  <published_value>  (217) 
12.8

>  <document_year>  (217) 
2001

>  <target_pref_name>  (217) 
Mu opioid receptor

>  <assay_chembl_id>  (217) 
CHEMBL757823

>  <standard_relation>  (217) 
=

>  <assay_description>  (217) 
Binding affinity at cloned human mu-opioid receptor

>  <published_relation>  (217) 
=

>  <standard_value>  (217) 
12.8

>  <qudt_units>  (217) 
http://www.openphacts.org/units/Nanomolar

>  <target_tax_id>  (217) 
9606

>  <bao_label>  (217) 
single protein format

>  <published_units>  (217) 
nM

>  <pchembl_value>  (217) 
7.89

>  <published_type>  (217) 
IC50

>  <activity_comment>  (217) 
None

$$$$

     RDKit          

 34 37  0  0  0  0  0  0  0  0999 V2000
    0.0000    0.0000    0.0000 C   0  0  0  0  0  0  0  0  0  0  0  0
    0.0000    0.0000    0.0000 C   0  0  0  0  0  0  0  0  0  0  0  0
    0.0000    0.0000    0.0000 C   0  0  0  0  0  0  0  0  0  0  0  0
    0.0000    0.0000    0.0000 C   0  0  0  0  0  0  0  0  0  0  0  0
    0.0000    0.0000    0.0000 O   0  0  0  0  0  0  0  0  0  0  0  0
    0.0000    0.0000    0.0000 C   0  0  0  0  0  0  0  0  0  0  0  0
    0.0000    0.0000    0.0000 C   0  0  0  0  0  0  0  0  0  0  0  0
    0.0000    0.0000    0.0000 C   0  0  0  0  0  0  0  0  0  0  0  0
    0.0000    0.0000    0.0000 C   0  0  0  0  0  0  0  0  0  0  0  0
    0.0000    0.0000    0.0000 C   0  0  0  0  0  0  0  0  0  0  0  0
    0.0000    0.0000    0.0000 C   0  0  0  0  0  0  0  0  0  0  0  0
    0.0000    0.0000    0.0000 N   0  0  0  0  0  0  0  0  0  0  0  0
    0.0000    0.0000    0.0000 C   0  0  0  0  0  0  0  0  0  0  0  0
    0.0000    0.0000    0.0000 O   0  0  0  0  0  0  0  0  0  0  0  0
    0.0000    0.0000    0.0000 N   0  0  0  0  0  0  0  0  0  0  0  0
    0.0000    0.0000    0.0000 C   0  0  0  0  0  0  0  0  0  0  0  0
    0.0000    0.0000    0.0000 C   0  0  0  0  0  0  0  0  0  0  0  0
    0.0000    0.0000    0.0000 C   0  0  0  0  0  0  0  0  0  0  0  0
    0.0000    0.0000    0.0000 C   0  0  0  0  0  0  0  0  0  0  0  0
    0.0000    0.0000    0.0000 C   0  0  0  0  0  0  0  0  0  0  0  0
    0.0000    0.0000    0.0000 C   0  0  0  0  0  0  0  0  0  0  0  0
    0.0000    0.0000    0.0000 C   0  0  0  0  0  0  0  0  0  0  0  0
    0.0000    0.0000    0.0000 C   0  0  0  0  0  0  0  0  0  0  0  0
    0.0000    0.0000    0.0000 C   0  0  0  0  0  0  0  0  0  0  0  0
    0.0000    0.0000    0.0000 C   0  0  0  0  0  0  0  0  0  0  0  0
    0.0000    0.0000    0.0000 N   0  0  0  0  0  0  0  0  0  0  0  0
    0.0000    0.0000    0.0000 C   0  0  0  0  0  0  0  0  0  0  0  0
    0.0000    0.0000    0.0000 O   0  0  0  0  0  0  0  0  0  0  0  0
    0.0000    0.0000    0.0000 C   0  0  0  0  0  0  0  0  0  0  0  0
    0.0000    0.0000    0.0000 C   0  0  0  0  0  0  0  0  0  0  0  0
    0.0000    0.0000    0.0000 C   0  0  0  0  0  0  0  0  0  0  0  0
    0.0000    0.0000    0.0000 C   0  0  0  0  0  0  0  0  0  0  0  0
    0.0000    0.0000    0.0000 C   0  0  0  0  0  0  0  0  0  0  0  0
    0.0000    0.0000    0.0000 C   0  0  0  0  0  0  0  0  0  0  0  0
  1  2  1  0
  2  3  2  0
  3  4  1  0
  4  5  1  0
  4  6  2  0
  6  7  1  0
  7  8  1  0
  7  9  2  0
  9 10  1  0
 10 11  1  0
 11 12  1  0
 11 13  1  0
 13 14  2  0
 13 15  1  0
 15 16  1  0
 16 17  1  0
 17 18  2  0
 18 19  1  0
 19 20  2  0
 20 21  1  0
 21 22  2  0
 22 23  1  0
 23 24  1  0
 24 25  1  0
 25 26  1  0
 26 27  1  0
 27 28  2  0
 27 29  1  0
 29 30  2  0
 30 31  1  0
 31 32  2  0
 32 33  1  0
 33 34  2  0
  9  2  1  0
 24 15  1  0
 22 17  1  0
 34 29  1  0
M  END
>  <pIC50>  (218) 
9.01

>  <ChEMBL_ID>  (218) 
CHEMBL309307

>  <document_journal>  (218) 
J. Med. Chem.

>  <bao_endpoint>  (218) 
BAO_0000190

>  <potential_duplicate>  (218) 
False

>  <uo_units>  (218) 
UO_0000065

>  <canonical_smiles>  (218) 
Cc1cc(O)cc(C)c1C[C@H](N)C(=O)N2Cc3ccccc3C[C@H]2CNC(=O)c4ccccc4

>  <parent_molecule_chembl_id>  (218) 
CHEMBL309307

>  <assay_type>  (218) 
B

>  <src_id>  (218) 
1

>  <ligand_efficiency>  (218) 
{u'le': u'0.36', u'bei': u'19.69', u'sei': u'9.42', u'lle': u'5.08'}

>  <standard_flag>  (218) 
True

>  <molecule_chembl_id>  (218) 
CHEMBL309307

>  <target_organism>  (218) 
Homo sapiens

>  <standard_units>  (218) 
nM

>  <record_id>  (218) 
140315

>  <document_chembl_id>  (218) 
CHEMBL1134689

>  <bao_format>  (218) 
BAO_0000357

>  <data_validity_description>  (218) 
None

>  <activity_id>  (218) 
1039860

>  <standard_type>  (218) 
IC50

>  <target_chembl_id>  (218) 
CHEMBL233

>  <data_validity_comment>  (218) 
None

>  <published_value>  (218) 
0.98

>  <document_year>  (218) 
2001

>  <target_pref_name>  (218) 
Mu opioid receptor

>  <assay_chembl_id>  (218) 
CHEMBL757823

>  <standard_relation>  (218) 
=

>  <assay_description>  (218) 
Binding affinity at cloned human mu-opioid receptor

>  <published_relation>  (218) 
=

>  <standard_value>  (218) 
0.98

>  <qudt_units>  (218) 
http://www.openphacts.org/units/Nanomolar

>  <target_tax_id>  (218) 
9606

>  <bao_label>  (218) 
single protein format

>  <published_units>  (218) 
nM

>  <pchembl_value>  (218) 
9.01

>  <published_type>  (218) 
IC50

>  <activity_comment>  (218) 
None

$$$$

     RDKit          

 30 32  0  0  0  0  0  0  0  0999 V2000
    0.0000    0.0000    0.0000 C   0  0  0  0  0  0  0  0  0  0  0  0
    0.0000    0.0000    0.0000 C   0  0  0  0  0  0  0  0  0  0  0  0
    0.0000    0.0000    0.0000 C   0  0  0  0  0  0  0  0  0  0  0  0
    0.0000    0.0000    0.0000 C   0  0  0  0  0  0  0  0  0  0  0  0
    0.0000    0.0000    0.0000 O   0  0  0  0  0  0  0  0  0  0  0  0
    0.0000    0.0000    0.0000 C   0  0  0  0  0  0  0  0  0  0  0  0
    0.0000    0.0000    0.0000 C   0  0  0  0  0  0  0  0  0  0  0  0
    0.0000    0.0000    0.0000 C   0  0  0  0  0  0  0  0  0  0  0  0
    0.0000    0.0000    0.0000 C   0  0  0  0  0  0  0  0  0  0  0  0
    0.0000    0.0000    0.0000 C   0  0  0  0  0  0  0  0  0  0  0  0
    0.0000    0.0000    0.0000 C   0  0  0  0  0  0  0  0  0  0  0  0
    0.0000    0.0000    0.0000 N   0  0  0  0  0  0  0  0  0  0  0  0
    0.0000    0.0000    0.0000 C   0  0  0  0  0  0  0  0  0  0  0  0
    0.0000    0.0000    0.0000 O   0  0  0  0  0  0  0  0  0  0  0  0
    0.0000    0.0000    0.0000 N   0  0  0  0  0  0  0  0  0  0  0  0
    0.0000    0.0000    0.0000 C   0  0  0  0  0  0  0  0  0  0  0  0
    0.0000    0.0000    0.0000 C   0  0  0  0  0  0  0  0  0  0  0  0
    0.0000    0.0000    0.0000 C   0  0  0  0  0  0  0  0  0  0  0  0
    0.0000    0.0000    0.0000 Br  0  0  0  0  0  0  0  0  0  0  0  0
    0.0000    0.0000    0.0000 C   0  0  0  0  0  0  0  0  0  0  0  0
    0.0000    0.0000    0.0000 O   0  0  0  0  0  0  0  0  0  0  0  0
    0.0000    0.0000    0.0000 C   0  0  0  0  0  0  0  0  0  0  0  0
    0.0000    0.0000    0.0000 Br  0  0  0  0  0  0  0  0  0  0  0  0
    0.0000    0.0000    0.0000 C   0  0  0  0  0  0  0  0  0  0  0  0
    0.0000    0.0000    0.0000 C   0  0  0  0  0  0  0  0  0  0  0  0
    0.0000    0.0000    0.0000 C   0  0  0  0  0  0  0  0  0  0  0  0
    0.0000    0.0000    0.0000 C   0  0  0  0  0  0  0  0  0  0  0  0
    0.0000    0.0000    0.0000 C   0  0  0  0  0  0  0  0  0  0  0  0
    0.0000    0.0000    0.0000 O   0  0  0  0  0  0  0  0  0  0  0  0
    0.0000    0.0000    0.0000 O   0  0  0  0  0  0  0  0  0  0  0  0
  1  2  1  0
  2  3  2  0
  3  4  1  0
  4  5  1  0
  4  6  2  0
  6  7  1  0
  7  8  1  0
  7  9  2  0
  9 10  1  0
 10 11  1  0
 11 12  1  0
 11 13  1  0
 13 14  2  0
 13 15  1  0
 15 16  1  0
 16 17  1  0
 17 18  2  0
 18 19  1  0
 18 20  1  0
 20 21  1  0
 20 22  2  0
 22 23  1  0
 22 24  1  0
 24 25  2  0
 25 26  1  0
 26 27  1  0
 27 28  1  0
 28 29  2  0
 28 30  1  0
  9  2  1  0
 27 15  1  0
 25 17  1  0
M  END
>  <pIC50>  (219) 
5.09

>  <ChEMBL_ID>  (219) 
CHEMBL2115434

>  <document_journal>  (219) 
Bioorg. Med. Chem. Lett.

>  <bao_endpoint>  (219) 
BAO_0000190

>  <potential_duplicate>  (219) 
False

>  <uo_units>  (219) 
UO_0000065

>  <canonical_smiles>  (219) 
Cc1cc(O)cc(C)c1C[C@@H](N)C(=O)N2Cc3c(Br)c(O)c(Br)cc3C[C@H]2C(=O)O

>  <parent_molecule_chembl_id>  (219) 
CHEMBL2115434

>  <assay_type>  (219) 
B

>  <src_id>  (219) 
1

>  <ligand_efficiency>  (219) 
{u'le': u'0.23', u'bei': u'9.39', u'sei': u'4.1', u'lle': u'3.65'}

>  <standard_flag>  (219) 
True

>  <molecule_chembl_id>  (219) 
CHEMBL2115434

>  <target_organism>  (219) 
Homo sapiens

>  <standard_units>  (219) 
nM

>  <record_id>  (219) 
76673

>  <document_chembl_id>  (219) 
CHEMBL1132761

>  <bao_format>  (219) 
BAO_0000357

>  <data_validity_description>  (219) 
None

>  <activity_id>  (219) 
1042067

>  <standard_type>  (219) 
IC50

>  <target_chembl_id>  (219) 
CHEMBL233

>  <data_validity_comment>  (219) 
None

>  <published_value>  (219) 
8130

>  <document_year>  (219) 
2000

>  <target_pref_name>  (219) 
Mu opioid receptor

>  <assay_chembl_id>  (219) 
CHEMBL757307

>  <standard_relation>  (219) 
=

>  <assay_description>  (219) 
Compound was evaluated for binding affinity towards Opioid receptor mu 1 by displacing 125 I-FK-33824

>  <published_relation>  (219) 
=

>  <standard_value>  (219) 
8130

>  <qudt_units>  (219) 
http://www.openphacts.org/units/Nanomolar

>  <target_tax_id>  (219) 
9606

>  <bao_label>  (219) 
single protein format

>  <published_units>  (219) 
nM

>  <pchembl_value>  (219) 
5.09

>  <published_type>  (219) 
IC50

>  <activity_comment>  (219) 
None

$$$$

     RDKit          

 27 29  0  0  0  0  0  0  0  0999 V2000
    0.0000    0.0000    0.0000 C   0  0  0  0  0  0  0  0  0  0  0  0
    0.0000    0.0000    0.0000 C   0  0  0  0  0  0  0  0  0  0  0  0
    0.0000    0.0000    0.0000 C   0  0  0  0  0  0  0  0  0  0  0  0
    0.0000    0.0000    0.0000 C   0  0  0  0  0  0  0  0  0  0  0  0
    0.0000    0.0000    0.0000 O   0  0  0  0  0  0  0  0  0  0  0  0
    0.0000    0.0000    0.0000 C   0  0  0  0  0  0  0  0  0  0  0  0
    0.0000    0.0000    0.0000 C   0  0  0  0  0  0  0  0  0  0  0  0
    0.0000    0.0000    0.0000 C   0  0  0  0  0  0  0  0  0  0  0  0
    0.0000    0.0000    0.0000 C   0  0  0  0  0  0  0  0  0  0  0  0
    0.0000    0.0000    0.0000 C   0  0  0  0  0  0  0  0  0  0  0  0
    0.0000    0.0000    0.0000 C   0  0  0  0  0  0  0  0  0  0  0  0
    0.0000    0.0000    0.0000 N   0  0  0  0  0  0  0  0  0  0  0  0
    0.0000    0.0000    0.0000 C   0  0  0  0  0  0  0  0  0  0  0  0
    0.0000    0.0000    0.0000 O   0  0  0  0  0  0  0  0  0  0  0  0
    0.0000    0.0000    0.0000 N   0  0  0  0  0  0  0  0  0  0  0  0
    0.0000    0.0000    0.0000 C   0  0  0  0  0  0  0  0  0  0  0  0
    0.0000    0.0000    0.0000 C   0  0  0  0  0  0  0  0  0  0  0  0
    0.0000    0.0000    0.0000 C   0  0  0  0  0  0  0  0  0  0  0  0
    0.0000    0.0000    0.0000 C   0  0  0  0  0  0  0  0  0  0  0  0
    0.0000    0.0000    0.0000 C   0  0  0  0  0  0  0  0  0  0  0  0
    0.0000    0.0000    0.0000 C   0  0  0  0  0  0  0  0  0  0  0  0
    0.0000    0.0000    0.0000 C   0  0  0  0  0  0  0  0  0  0  0  0
    0.0000    0.0000    0.0000 C   0  0  0  0  0  0  0  0  0  0  0  0
    0.0000    0.0000    0.0000 C   0  0  0  0  0  0  0  0  0  0  0  0
    0.0000    0.0000    0.0000 C   0  0  0  0  0  0  0  0  0  0  0  0
    0.0000    0.0000    0.0000 O   0  0  0  0  0  0  0  0  0  0  0  0
    0.0000    0.0000    0.0000 O   0  0  0  0  0  0  0  0  0  0  0  0
  1  2  1  0
  2  3  2  0
  3  4  1  0
  4  5  1  0
  4  6  2  0
  6  7  1  0
  7  8  1  0
  7  9  2  0
  9 10  1  0
 10 11  1  0
 11 12  1  0
 11 13  1  0
 13 14  2  0
 13 15  1  0
 15 16  1  0
 16 17  1  0
 17 18  2  0
 18 19  1  0
 19 20  2  0
 20 21  1  0
 21 22  2  0
 22 23  1  0
 23 24  1  0
 24 25  1  0
 25 26  2  0
 25 27  1  0
  9  2  1  0
 24 15  1  0
 22 17  1  0
M  END
>  <pIC50>  (220) 
6.05

>  <ChEMBL_ID>  (220) 
CHEMBL571492

>  <document_journal>  (220) 
Bioorg. Med. Chem. Lett.

>  <bao_endpoint>  (220) 
BAO_0000190

>  <potential_duplicate>  (220) 
False

>  <uo_units>  (220) 
UO_0000065

>  <canonical_smiles>  (220) 
Cc1cc(O)cc(C)c1C[C@H](N)C(=O)N2Cc3ccccc3C[C@H]2C(=O)O

>  <parent_molecule_chembl_id>  (220) 
CHEMBL571492

>  <assay_type>  (220) 
B

>  <src_id>  (220) 
1

>  <ligand_efficiency>  (220) 
{u'le': u'0.31', u'bei': u'16.42', u'sei': u'5.82', u'lle': u'5.87'}

>  <standard_flag>  (220) 
True

>  <molecule_chembl_id>  (220) 
CHEMBL571492

>  <target_organism>  (220) 
Homo sapiens

>  <standard_units>  (220) 
nM

>  <record_id>  (220) 
76660

>  <document_chembl_id>  (220) 
CHEMBL1132761

>  <bao_format>  (220) 
BAO_0000357

>  <data_validity_description>  (220) 
None

>  <activity_id>  (220) 
1043149

>  <standard_type>  (220) 
IC50

>  <target_chembl_id>  (220) 
CHEMBL233

>  <data_validity_comment>  (220) 
None

>  <published_value>  (220) 
894

>  <document_year>  (220) 
2000

>  <target_pref_name>  (220) 
Mu opioid receptor

>  <assay_chembl_id>  (220) 
CHEMBL757307

>  <standard_relation>  (220) 
=

>  <assay_description>  (220) 
Compound was evaluated for binding affinity towards Opioid receptor mu 1 by displacing 125 I-FK-33824

>  <published_relation>  (220) 
=

>  <standard_value>  (220) 
894

>  <qudt_units>  (220) 
http://www.openphacts.org/units/Nanomolar

>  <target_tax_id>  (220) 
9606

>  <bao_label>  (220) 
single protein format

>  <published_units>  (220) 
nM

>  <pchembl_value>  (220) 
6.05

>  <published_type>  (220) 
IC50

>  <activity_comment>  (220) 
None

$$$$

     RDKit          

 35 38  0  0  0  0  0  0  0  0999 V2000
    0.0000    0.0000    0.0000 C   0  0  0  0  0  0  0  0  0  0  0  0
    0.0000    0.0000    0.0000 O   0  0  0  0  0  0  0  0  0  0  0  0
    0.0000    0.0000    0.0000 C   0  0  0  0  0  0  0  0  0  0  0  0
    0.0000    0.0000    0.0000 C   0  0  0  0  0  0  0  0  0  0  0  0
    0.0000    0.0000    0.0000 C   0  0  0  0  0  0  0  0  0  0  0  0
    0.0000    0.0000    0.0000 C   0  0  0  0  0  0  0  0  0  0  0  0
    0.0000    0.0000    0.0000 C   0  0  0  0  0  0  0  0  0  0  0  0
    0.0000    0.0000    0.0000 C   0  0  0  0  0  0  0  0  0  0  0  0
    0.0000    0.0000    0.0000 C   0  0  0  0  0  0  0  0  0  0  0  0
    0.0000    0.0000    0.0000 C   0  0  0  0  0  0  0  0  0  0  0  0
    0.0000    0.0000    0.0000 C   0  0  0  0  0  0  0  0  0  0  0  0
    0.0000    0.0000    0.0000 C   0  0  0  0  0  0  0  0  0  0  0  0
    0.0000    0.0000    0.0000 C   0  0  0  0  0  0  0  0  0  0  0  0
    0.0000    0.0000    0.0000 C   0  0  0  0  0  0  0  0  0  0  0  0
    0.0000    0.0000    0.0000 N   0  0  0  0  0  0  0  0  0  0  0  0
    0.0000    0.0000    0.0000 C   0  0  0  0  0  0  0  0  0  0  0  0
    0.0000    0.0000    0.0000 C   0  0  0  0  0  0  0  0  0  0  0  0
    0.0000    0.0000    0.0000 C   0  0  0  0  0  0  0  0  0  0  0  0
    0.0000    0.0000    0.0000 C   0  0  0  0  0  0  0  0  0  0  0  0
    0.0000    0.0000    0.0000 O   0  0  0  0  0  0  0  0  0  0  0  0
    0.0000    0.0000    0.0000 C   0  0  0  0  0  0  0  0  0  0  0  0
    0.0000    0.0000    0.0000 N   0  0  0  0  0  0  0  0  0  0  0  0
    0.0000    0.0000    0.0000 C   0  0  0  0  0  0  0  0  0  0  0  0
    0.0000    0.0000    0.0000 C   0  0  0  0  0  0  0  0  0  0  0  0
    0.0000    0.0000    0.0000 C   0  0  0  0  0  0  0  0  0  0  0  0
    0.0000    0.0000    0.0000 C   0  0  0  0  0  0  0  0  0  0  0  0
    0.0000    0.0000    0.0000 C   0  0  0  0  0  0  0  0  0  0  0  0
    0.0000    0.0000    0.0000 C   0  0  0  0  0  0  0  0  0  0  0  0
    0.0000    0.0000    0.0000 O   0  0  0  0  0  0  0  0  0  0  0  0
    0.0000    0.0000    0.0000 C   0  0  0  0  0  0  0  0  0  0  0  0
    0.0000    0.0000    0.0000 C   0  0  0  0  0  0  0  0  0  0  0  0
    0.0000    0.0000    0.0000 C   0  0  0  0  0  0  0  0  0  0  0  0
    0.0000    0.0000    0.0000 C   0  0  0  0  0  0  0  0  0  0  0  0
    0.0000    0.0000    0.0000 O   0  0  0  0  0  0  0  0  0  0  0  0
    0.0000    0.0000    0.0000 O   0  0  0  0  0  0  0  0  0  0  0  0
  1  2  1  0
  2  3  1  0
  3  4  2  0
  4  5  1  0
  5  6  2  0
  6  7  1  0
  7  8  2  0
  6  9  1  0
  9 10  2  0
 10 11  1  0
 11 12  2  0
 12 13  1  0
 13 14  1  0
 14 15  1  0
 15 16  1  0
 16 17  1  0
 17 18  2  0
 15 19  1  0
 19 20  2  0
 19 21  1  0
 21 22  1  0
 21 23  1  0
 23 24  1  0
 24 25  2  0
 25 26  1  0
 25 27  1  0
 27 28  2  0
 28 29  1  0
 28 30  1  0
 30 31  2  0
 31 32  1  0
 14 33  1  0
 33 34  2  0
 33 35  1  0
  8  3  1  0
 18  9  1  0
 17 12  1  0
 31 24  1  0
M  END
>  <pIC50>  (221) 
5.58

>  <ChEMBL_ID>  (221) 
CHEMBL48098

>  <document_journal>  (221) 
Bioorg. Med. Chem. Lett.

>  <bao_endpoint>  (221) 
BAO_0000190

>  <potential_duplicate>  (221) 
False

>  <uo_units>  (221) 
UO_0000065

>  <canonical_smiles>  (221) 
COc1ccc(cc1)c2ccc3C[C@H](N(Cc3c2)C(=O)C(N)Cc4c(C)cc(O)cc4C)C(=O)O

>  <parent_molecule_chembl_id>  (221) 
CHEMBL48098

>  <assay_type>  (221) 
B

>  <src_id>  (221) 
1

>  <ligand_efficiency>  (221) 
{u'le': u'0.22', u'bei': u'11.75', u'sei': u'4.93', u'lle': u'3.89'}

>  <standard_flag>  (221) 
True

>  <molecule_chembl_id>  (221) 
CHEMBL48098

>  <target_organism>  (221) 
Homo sapiens

>  <standard_units>  (221) 
nM

>  <record_id>  (221) 
76667

>  <document_chembl_id>  (221) 
CHEMBL1132761

>  <bao_format>  (221) 
BAO_0000357

>  <data_validity_description>  (221) 
None

>  <activity_id>  (221) 
1043154

>  <standard_type>  (221) 
IC50

>  <target_chembl_id>  (221) 
CHEMBL233

>  <data_validity_comment>  (221) 
None

>  <published_value>  (221) 
2650

>  <document_year>  (221) 
2000

>  <target_pref_name>  (221) 
Mu opioid receptor

>  <assay_chembl_id>  (221) 
CHEMBL757307

>  <standard_relation>  (221) 
=

>  <assay_description>  (221) 
Compound was evaluated for binding affinity towards Opioid receptor mu 1 by displacing 125 I-FK-33824

>  <published_relation>  (221) 
=

>  <standard_value>  (221) 
2650

>  <qudt_units>  (221) 
http://www.openphacts.org/units/Nanomolar

>  <target_tax_id>  (221) 
9606

>  <bao_label>  (221) 
single protein format

>  <published_units>  (221) 
nM

>  <pchembl_value>  (221) 
5.58

>  <published_type>  (221) 
IC50

>  <activity_comment>  (221) 
None

$$$$

     RDKit          

 32 34  0  0  0  0  0  0  0  0999 V2000
    0.0000    0.0000    0.0000 C   0  0  0  0  0  0  0  0  0  0  0  0
    0.0000    0.0000    0.0000 C   0  0  0  0  0  0  0  0  0  0  0  0
    0.0000    0.0000    0.0000 C   0  0  0  0  0  0  0  0  0  0  0  0
    0.0000    0.0000    0.0000 C   0  0  0  0  0  0  0  0  0  0  0  0
    0.0000    0.0000    0.0000 O   0  0  0  0  0  0  0  0  0  0  0  0
    0.0000    0.0000    0.0000 C   0  0  0  0  0  0  0  0  0  0  0  0
    0.0000    0.0000    0.0000 C   0  0  0  0  0  0  0  0  0  0  0  0
    0.0000    0.0000    0.0000 C   0  0  0  0  0  0  0  0  0  0  0  0
    0.0000    0.0000    0.0000 C   0  0  0  0  0  0  0  0  0  0  0  0
    0.0000    0.0000    0.0000 C   0  0  0  0  0  0  0  0  0  0  0  0
    0.0000    0.0000    0.0000 C   0  0  0  0  0  0  0  0  0  0  0  0
    0.0000    0.0000    0.0000 N   0  0  0  0  0  0  0  0  0  0  0  0
    0.0000    0.0000    0.0000 C   0  0  0  0  0  0  0  0  0  0  0  0
    0.0000    0.0000    0.0000 O   0  0  0  0  0  0  0  0  0  0  0  0
    0.0000    0.0000    0.0000 N   0  0  0  0  0  0  0  0  0  0  0  0
    0.0000    0.0000    0.0000 C   0  0  0  0  0  0  0  0  0  0  0  0
    0.0000    0.0000    0.0000 C   0  0  0  0  0  0  0  0  0  0  0  0
    0.0000    0.0000    0.0000 C   0  0  0  0  0  0  0  0  0  0  0  0
    0.0000    0.0000    0.0000 C   0  0  0  0  0  0  0  0  0  0  0  0
    0.0000    0.0000    0.0000 C   0  0  0  0  0  0  0  0  0  0  0  0
    0.0000    0.0000    0.0000 C   0  0  0  0  0  0  0  0  0  0  0  0
    0.0000    0.0000    0.0000 C   0  0  0  0  0  0  0  0  0  0  0  0
    0.0000    0.0000    0.0000 C   0  0  0  0  0  0  0  0  0  0  0  0
    0.0000    0.0000    0.0000 C   0  0  0  0  0  0  0  0  0  0  0  0
    0.0000    0.0000    0.0000 C   0  0  0  0  0  0  0  0  0  0  0  0
    0.0000    0.0000    0.0000 N   0  0  0  0  0  0  0  0  0  0  0  0
    0.0000    0.0000    0.0000 C   0  0  0  0  0  0  0  0  0  0  0  0
    0.0000    0.0000    0.0000 O   0  0  0  0  0  0  0  0  0  0  0  0
    0.0000    0.0000    0.0000 C   0  0  0  0  0  0  0  0  0  0  0  0
    0.0000    0.0000    0.0000 C   0  0  0  0  0  0  0  0  0  0  0  0
    0.0000    0.0000    0.0000 C   0  0  0  0  0  0  0  0  0  0  0  0
    0.0000    0.0000    0.0000 C   0  0  0  0  0  0  0  0  0  0  0  0
  1  2  1  0
  2  3  2  0
  3  4  1  0
  4  5  1  0
  4  6  2  0
  6  7  1  0
  7  8  1  0
  7  9  2  0
  9 10  1  0
 10 11  1  0
 11 12  1  0
 11 13  1  0
 13 14  2  0
 13 15  1  0
 15 16  1  0
 16 17  1  0
 17 18  2  0
 18 19  1  0
 19 20  2  0
 20 21  1  0
 21 22  2  0
 22 23  1  0
 23 24  1  0
 24 25  1  0
 25 26  1  0
 26 27  1  0
 27 28  2  0
 27 29  1  0
 29 30  1  0
 29 31  1  0
 29 32  1  0
  9  2  1  0
 24 15  1  0
 22 17  1  0
M  END
>  <pIC50>  (222) 
7.6

>  <ChEMBL_ID>  (222) 
CHEMBL307889

>  <document_journal>  (222) 
J. Med. Chem.

>  <bao_endpoint>  (222) 
BAO_0000190

>  <potential_duplicate>  (222) 
False

>  <uo_units>  (222) 
UO_0000065

>  <canonical_smiles>  (222) 
Cc1cc(O)cc(C)c1C[C@H](N)C(=O)N2Cc3ccccc3C[C@H]2CNC(=O)C(C)(C)C

>  <parent_molecule_chembl_id>  (222) 
CHEMBL307889

>  <assay_type>  (222) 
B

>  <src_id>  (222) 
1

>  <ligand_efficiency>  (222) 
{u'le': u'0.32', u'bei': u'17.36', u'sei': u'7.94', u'lle': u'3.79'}

>  <standard_flag>  (222) 
True

>  <molecule_chembl_id>  (222) 
CHEMBL307889

>  <target_organism>  (222) 
Homo sapiens

>  <standard_units>  (222) 
nM

>  <record_id>  (222) 
140314

>  <document_chembl_id>  (222) 
CHEMBL1134689

>  <bao_format>  (222) 
BAO_0000357

>  <data_validity_description>  (222) 
None

>  <activity_id>  (222) 
1043438

>  <standard_type>  (222) 
IC50

>  <target_chembl_id>  (222) 
CHEMBL233

>  <data_validity_comment>  (222) 
None

>  <published_value>  (222) 
25.3

>  <document_year>  (222) 
2001

>  <target_pref_name>  (222) 
Mu opioid receptor

>  <assay_chembl_id>  (222) 
CHEMBL757823

>  <standard_relation>  (222) 
=

>  <assay_description>  (222) 
Binding affinity at cloned human mu-opioid receptor

>  <published_relation>  (222) 
=

>  <standard_value>  (222) 
25.3

>  <qudt_units>  (222) 
http://www.openphacts.org/units/Nanomolar

>  <target_tax_id>  (222) 
9606

>  <bao_label>  (222) 
single protein format

>  <published_units>  (222) 
nM

>  <pchembl_value>  (222) 
7.6

>  <published_type>  (222) 
IC50

>  <activity_comment>  (222) 
None

$$$$

     RDKit          

 31 33  0  0  0  0  0  0  0  0999 V2000
    0.0000    0.0000    0.0000 C   0  0  0  0  0  0  0  0  0  0  0  0
    0.0000    0.0000    0.0000 C   0  0  0  0  0  0  0  0  0  0  0  0
    0.0000    0.0000    0.0000 N   0  0  0  0  0  0  0  0  0  0  0  0
    0.0000    0.0000    0.0000 C   0  0  0  0  0  0  0  0  0  0  0  0
    0.0000    0.0000    0.0000 O   0  0  0  0  0  0  0  0  0  0  0  0
    0.0000    0.0000    0.0000 N   0  0  0  0  0  0  0  0  0  0  0  0
    0.0000    0.0000    0.0000 C   0  0  0  0  0  0  0  0  0  0  0  0
    0.0000    0.0000    0.0000 C   0  0  0  0  0  0  0  0  0  0  0  0
    0.0000    0.0000    0.0000 C   0  0  0  0  0  0  0  0  0  0  0  0
    0.0000    0.0000    0.0000 C   0  0  0  0  0  0  0  0  0  0  0  0
    0.0000    0.0000    0.0000 C   0  0  0  0  0  0  0  0  0  0  0  0
    0.0000    0.0000    0.0000 C   0  0  0  0  0  0  0  0  0  0  0  0
    0.0000    0.0000    0.0000 C   0  0  0  0  0  0  0  0  0  0  0  0
    0.0000    0.0000    0.0000 C   0  0  0  0  0  0  0  0  0  0  0  0
    0.0000    0.0000    0.0000 C   0  0  0  0  0  0  0  0  0  0  0  0
    0.0000    0.0000    0.0000 C   0  0  0  0  0  0  0  0  0  0  0  0
    0.0000    0.0000    0.0000 N   0  0  0  0  0  0  0  0  0  0  0  0
    0.0000    0.0000    0.0000 C   0  0  0  0  0  0  0  0  0  0  0  0
    0.0000    0.0000    0.0000 O   0  0  0  0  0  0  0  0  0  0  0  0
    0.0000    0.0000    0.0000 C   0  0  0  0  0  0  0  0  0  0  0  0
    0.0000    0.0000    0.0000 N   0  0  0  0  0  0  0  0  0  0  0  0
    0.0000    0.0000    0.0000 C   0  0  0  0  0  0  0  0  0  0  0  0
    0.0000    0.0000    0.0000 C   0  0  0  0  0  0  0  0  0  0  0  0
    0.0000    0.0000    0.0000 C   0  0  0  0  0  0  0  0  0  0  0  0
    0.0000    0.0000    0.0000 C   0  0  0  0  0  0  0  0  0  0  0  0
    0.0000    0.0000    0.0000 C   0  0  0  0  0  0  0  0  0  0  0  0
    0.0000    0.0000    0.0000 C   0  0  0  0  0  0  0  0  0  0  0  0
    0.0000    0.0000    0.0000 O   0  0  0  0  0  0  0  0  0  0  0  0
    0.0000    0.0000    0.0000 C   0  0  0  0  0  0  0  0  0  0  0  0
    0.0000    0.0000    0.0000 C   0  0  0  0  0  0  0  0  0  0  0  0
    0.0000    0.0000    0.0000 C   0  0  0  0  0  0  0  0  0  0  0  0
  1  2  1  0
  2  3  1  0
  3  4  1  0
  4  5  2  0
  4  6  1  0
  6  7  1  0
  7  8  1  0
  8  9  1  0
  9 10  1  0
 10 11  2  0
 11 12  1  0
 12 13  2  0
 13 14  1  0
 14 15  2  0
 15 16  1  0
 16 17  1  0
 17 18  1  0
 18 19  2  0
 18 20  1  0
 20 21  1  0
 20 22  1  0
 22 23  1  0
 23 24  2  0
 24 25  1  0
 24 26  1  0
 26 27  2  0
 27 28  1  0
 27 29  1  0
 29 30  2  0
 30 31  1  0
 17  8  1  0
 15 10  1  0
 30 23  1  0
M  END
>  <pIC50>  (223) 
6.77

>  <ChEMBL_ID>  (223) 
CHEMBL309783

>  <document_journal>  (223) 
J. Med. Chem.

>  <bao_endpoint>  (223) 
BAO_0000190

>  <potential_duplicate>  (223) 
False

>  <uo_units>  (223) 
UO_0000065

>  <canonical_smiles>  (223) 
CCNC(=O)NC[C@@H]1Cc2ccccc2CN1C(=O)[C@@H](N)Cc3c(C)cc(O)cc3C

>  <parent_molecule_chembl_id>  (223) 
CHEMBL309783

>  <assay_type>  (223) 
B

>  <src_id>  (223) 
1

>  <ligand_efficiency>  (223) 
{u'le': u'0.3', u'bei': u'15.95', u'sei': u'6.29', u'lle': u'4.16'}

>  <standard_flag>  (223) 
True

>  <molecule_chembl_id>  (223) 
CHEMBL309783

>  <target_organism>  (223) 
Homo sapiens

>  <standard_units>  (223) 
nM

>  <record_id>  (223) 
140322

>  <document_chembl_id>  (223) 
CHEMBL1134689

>  <bao_format>  (223) 
BAO_0000357

>  <data_validity_description>  (223) 
None

>  <activity_id>  (223) 
1044939

>  <standard_type>  (223) 
IC50

>  <target_chembl_id>  (223) 
CHEMBL233

>  <data_validity_comment>  (223) 
None

>  <published_value>  (223) 
169

>  <document_year>  (223) 
2001

>  <target_pref_name>  (223) 
Mu opioid receptor

>  <assay_chembl_id>  (223) 
CHEMBL757823

>  <standard_relation>  (223) 
=

>  <assay_description>  (223) 
Binding affinity at cloned human mu-opioid receptor

>  <published_relation>  (223) 
=

>  <standard_value>  (223) 
169

>  <qudt_units>  (223) 
http://www.openphacts.org/units/Nanomolar

>  <target_tax_id>  (223) 
9606

>  <bao_label>  (223) 
single protein format

>  <published_units>  (223) 
nM

>  <pchembl_value>  (223) 
6.77

>  <published_type>  (223) 
IC50

>  <activity_comment>  (223) 
None

$$$$

     RDKit          

 55 56  0  0  0  0  0  0  0  0999 V2000
    0.0000    0.0000    0.0000 C   0  0  0  0  0  0  0  0  0  0  0  0
    0.0000    0.0000    0.0000 C   0  0  0  0  0  0  0  0  0  0  0  0
    0.0000    0.0000    0.0000 C   0  0  0  0  0  0  0  0  0  0  0  0
    0.0000    0.0000    0.0000 C   0  0  0  0  0  0  0  0  0  0  0  0
    0.0000    0.0000    0.0000 N   0  0  0  0  0  0  0  0  0  0  0  0
    0.0000    0.0000    0.0000 C   0  0  0  0  0  0  0  0  0  0  0  0
    0.0000    0.0000    0.0000 O   0  0  0  0  0  0  0  0  0  0  0  0
    0.0000    0.0000    0.0000 C   0  0  0  0  0  0  0  0  0  0  0  0
    0.0000    0.0000    0.0000 N   0  0  0  0  0  0  0  0  0  0  0  0
    0.0000    0.0000    0.0000 C   0  0  0  0  0  0  0  0  0  0  0  0
    0.0000    0.0000    0.0000 O   0  0  0  0  0  0  0  0  0  0  0  0
    0.0000    0.0000    0.0000 C   0  0  0  0  0  0  0  0  0  0  0  0
    0.0000    0.0000    0.0000 C   0  0  0  0  0  0  0  0  0  0  0  0
    0.0000    0.0000    0.0000 C   0  0  0  0  0  0  0  0  0  0  0  0
    0.0000    0.0000    0.0000 O   0  0  0  0  0  0  0  0  0  0  0  0
    0.0000    0.0000    0.0000 O   0  0  0  0  0  0  0  0  0  0  0  0
    0.0000    0.0000    0.0000 N   0  0  0  0  0  0  0  0  0  0  0  0
    0.0000    0.0000    0.0000 C   0  0  0  0  0  0  0  0  0  0  0  0
    0.0000    0.0000    0.0000 O   0  0  0  0  0  0  0  0  0  0  0  0
    0.0000    0.0000    0.0000 C   0  0  0  0  0  0  0  0  0  0  0  0
    0.0000    0.0000    0.0000 C   0  0  0  0  0  0  0  0  0  0  0  0
    0.0000    0.0000    0.0000 C   0  0  0  0  0  0  0  0  0  0  0  0
    0.0000    0.0000    0.0000 C   0  0  0  0  0  0  0  0  0  0  0  0
    0.0000    0.0000    0.0000 C   0  0  0  0  0  0  0  0  0  0  0  0
    0.0000    0.0000    0.0000 C   0  0  0  0  0  0  0  0  0  0  0  0
    0.0000    0.0000    0.0000 C   0  0  0  0  0  0  0  0  0  0  0  0
    0.0000    0.0000    0.0000 C   0  0  0  0  0  0  0  0  0  0  0  0
    0.0000    0.0000    0.0000 N   0  0  0  0  0  0  0  0  0  0  0  0
    0.0000    0.0000    0.0000 C   0  0  0  0  0  0  0  0  0  0  0  0
    0.0000    0.0000    0.0000 O   0  0  0  0  0  0  0  0  0  0  0  0
    0.0000    0.0000    0.0000 C   0  0  0  0  0  0  0  0  0  0  0  0
    0.0000    0.0000    0.0000 C   0  0  0  0  0  0  0  0  0  0  0  0
    0.0000    0.0000    0.0000 N   0  0  0  0  0  0  0  0  0  0  0  0
    0.0000    0.0000    0.0000 C   0  0  0  0  0  0  0  0  0  0  0  0
    0.0000    0.0000    0.0000 O   0  0  0  0  0  0  0  0  0  0  0  0
    0.0000    0.0000    0.0000 C   0  0  0  0  0  0  0  0  0  0  0  0
    0.0000    0.0000    0.0000 N   0  0  0  0  0  0  0  0  0  0  0  0
    0.0000    0.0000    0.0000 C   0  0  0  0  0  0  0  0  0  0  0  0
    0.0000    0.0000    0.0000 C   0  0  0  0  0  0  0  0  0  0  0  0
    0.0000    0.0000    0.0000 C   0  0  0  0  0  0  0  0  0  0  0  0
    0.0000    0.0000    0.0000 C   0  0  0  0  0  0  0  0  0  0  0  0
    0.0000    0.0000    0.0000 C   0  0  0  0  0  0  0  0  0  0  0  0
    0.0000    0.0000    0.0000 O   0  0  0  0  0  0  0  0  0  0  0  0
    0.0000    0.0000    0.0000 C   0  0  0  0  0  0  0  0  0  0  0  0
    0.0000    0.0000    0.0000 C   0  0  0  0  0  0  0  0  0  0  0  0
    0.0000    0.0000    0.0000 C   0  0  0  0  0  0  0  0  0  0  0  0
    0.0000    0.0000    0.0000 C   0  0  0  0  0  0  0  0  0  0  0  0
    0.0000    0.0000    0.0000 C   0  0  0  0  0  0  0  0  0  0  0  0
    0.0000    0.0000    0.0000 C   0  0  0  0  0  0  0  0  0  0  0  0
    0.0000    0.0000    0.0000 O   0  0  0  0  0  0  0  0  0  0  0  0
    0.0000    0.0000    0.0000 N   0  0  0  0  0  0  0  0  0  0  0  0
    0.0000    0.0000    0.0000 C   0  0  0  0  0  0  0  0  0  0  0  0
    0.0000    0.0000    0.0000 C   0  0  0  0  0  0  0  0  0  0  0  0
    0.0000    0.0000    0.0000 O   0  0  0  0  0  0  0  0  0  0  0  0
    0.0000    0.0000    0.0000 N   0  0  0  0  0  0  0  0  0  0  0  0
  1  2  1  0
  2  3  1  0
  2  4  1  0
  4  5  1  0
  5  6  1  0
  6  7  2  0
  6  8  1  0
  8  9  1  0
  9 10  1  0
 10 11  2  0
 10 12  1  0
 12 13  1  0
 13 14  1  0
 14 15  2  0
 14 16  1  0
 12 17  1  0
 17 18  1  0
 18 19  2  0
 18 20  1  0
 20 21  1  0
 21 22  1  0
 22 23  2  0
 23 24  1  0
 24 25  2  0
 25 26  1  0
 26 27  2  0
 20 28  1  0
 28 29  1  0
 29 30  2  0
 29 31  1  0
 31 32  1  0
 31 33  1  0
 33 34  1  0
 34 35  2  0
 34 36  1  0
 36 37  1  0
 36 38  1  0
 38 39  1  0
 39 40  2  0
 40 41  1  0
 41 42  2  0
 42 43  1  0
 42 44  1  0
 44 45  2  0
  8 46  1  0
 46 47  1  0
 46 48  1  0
  4 49  1  0
 49 50  2  0
 49 51  1  0
 51 52  1  0
 52 53  1  0
 53 54  2  0
 53 55  1  0
 27 22  1  0
 45 39  1  0
M  END
>  <pIC50>  (224) 
6.65

>  <ChEMBL_ID>  (224) 
CHEMBL317956

>  <document_journal>  (224) 
J. Med. Chem.

>  <bao_endpoint>  (224) 
BAO_0000190

>  <potential_duplicate>  (224) 
False

>  <uo_units>  (224) 
UO_0000065

>  <canonical_smiles>  (224) 
CC(C)[C@H](NC(=O)[C@@H](NC(=O)[C@H](CC(=O)O)NC(=O)[C@H](Cc1ccccc1)NC(=O)[C@@H](C)NC(=O)[C@@H](N)Cc2ccc(O)cc2)C(C)C)C(=O)NCC(=O)N

>  <parent_molecule_chembl_id>  (224) 
CHEMBL317956

>  <assay_type>  (224) 
B

>  <src_id>  (224) 
1

>  <ligand_efficiency>  (224) 
{u'le': u'0.17', u'bei': u'8.65', u'sei': u'2.21', u'lle': u'9.72'}

>  <standard_flag>  (224) 
True

>  <molecule_chembl_id>  (224) 
CHEMBL317956

>  <target_organism>  (224) 
Homo sapiens

>  <standard_units>  (224) 
nM

>  <record_id>  (224) 
140313

>  <document_chembl_id>  (224) 
CHEMBL1134689

>  <bao_format>  (224) 
BAO_0000357

>  <data_validity_description>  (224) 
None

>  <activity_id>  (224) 
1044946

>  <standard_type>  (224) 
IC50

>  <target_chembl_id>  (224) 
CHEMBL233

>  <data_validity_comment>  (224) 
None

>  <published_value>  (224) 
225

>  <document_year>  (224) 
2001

>  <target_pref_name>  (224) 
Mu opioid receptor

>  <assay_chembl_id>  (224) 
CHEMBL757823

>  <standard_relation>  (224) 
=

>  <assay_description>  (224) 
Binding affinity at cloned human mu-opioid receptor

>  <published_relation>  (224) 
=

>  <standard_value>  (224) 
225

>  <qudt_units>  (224) 
http://www.openphacts.org/units/Nanomolar

>  <target_tax_id>  (224) 
9606

>  <bao_label>  (224) 
single protein format

>  <published_units>  (224) 
nM

>  <pchembl_value>  (224) 
6.65

>  <published_type>  (224) 
IC50

>  <activity_comment>  (224) 
None

$$$$

     RDKit          

 29 31  0  0  0  0  0  0  0  0999 V2000
    0.0000    0.0000    0.0000 C   0  0  0  0  0  0  0  0  0  0  0  0
    0.0000    0.0000    0.0000 C   0  0  0  0  0  0  0  0  0  0  0  0
    0.0000    0.0000    0.0000 O   0  0  0  0  0  0  0  0  0  0  0  0
    0.0000    0.0000    0.0000 N   0  0  0  0  0  0  0  0  0  0  0  0
    0.0000    0.0000    0.0000 C   0  0  0  0  0  0  0  0  0  0  0  0
    0.0000    0.0000    0.0000 C   0  0  0  0  0  0  0  0  0  0  0  0
    0.0000    0.0000    0.0000 C   0  0  0  0  0  0  0  0  0  0  0  0
    0.0000    0.0000    0.0000 C   0  0  0  0  0  0  0  0  0  0  0  0
    0.0000    0.0000    0.0000 C   0  0  0  0  0  0  0  0  0  0  0  0
    0.0000    0.0000    0.0000 C   0  0  0  0  0  0  0  0  0  0  0  0
    0.0000    0.0000    0.0000 C   0  0  0  0  0  0  0  0  0  0  0  0
    0.0000    0.0000    0.0000 C   0  0  0  0  0  0  0  0  0  0  0  0
    0.0000    0.0000    0.0000 C   0  0  0  0  0  0  0  0  0  0  0  0
    0.0000    0.0000    0.0000 C   0  0  0  0  0  0  0  0  0  0  0  0
    0.0000    0.0000    0.0000 N   0  0  0  0  0  0  0  0  0  0  0  0
    0.0000    0.0000    0.0000 C   0  0  0  0  0  0  0  0  0  0  0  0
    0.0000    0.0000    0.0000 O   0  0  0  0  0  0  0  0  0  0  0  0
    0.0000    0.0000    0.0000 C   0  0  0  0  0  0  0  0  0  0  0  0
    0.0000    0.0000    0.0000 N   0  0  0  0  0  0  0  0  0  0  0  0
    0.0000    0.0000    0.0000 C   0  0  0  0  0  0  0  0  0  0  0  0
    0.0000    0.0000    0.0000 C   0  0  0  0  0  0  0  0  0  0  0  0
    0.0000    0.0000    0.0000 C   0  0  0  0  0  0  0  0  0  0  0  0
    0.0000    0.0000    0.0000 C   0  0  0  0  0  0  0  0  0  0  0  0
    0.0000    0.0000    0.0000 C   0  0  0  0  0  0  0  0  0  0  0  0
    0.0000    0.0000    0.0000 C   0  0  0  0  0  0  0  0  0  0  0  0
    0.0000    0.0000    0.0000 O   0  0  0  0  0  0  0  0  0  0  0  0
    0.0000    0.0000    0.0000 C   0  0  0  0  0  0  0  0  0  0  0  0
    0.0000    0.0000    0.0000 C   0  0  0  0  0  0  0  0  0  0  0  0
    0.0000    0.0000    0.0000 C   0  0  0  0  0  0  0  0  0  0  0  0
  1  2  1  0
  2  3  2  0
  2  4  1  0
  4  5  1  0
  5  6  1  0
  6  7  1  0
  7  8  1  0
  8  9  2  0
  9 10  1  0
 10 11  2  0
 11 12  1  0
 12 13  2  0
 13 14  1  0
 14 15  1  0
 15 16  1  0
 16 17  2  0
 16 18  1  0
 18 19  1  0
 18 20  1  0
 20 21  1  0
 21 22  2  0
 22 23  1  0
 22 24  1  0
 24 25  2  0
 25 26  1  0
 25 27  1  0
 27 28  2  0
 28 29  1  0
 15  6  1  0
 13  8  1  0
 28 21  1  0
M  END
>  <pIC50>  (225) 
7.79

>  <ChEMBL_ID>  (225) 
CHEMBL80823

>  <document_journal>  (225) 
J. Med. Chem.

>  <bao_endpoint>  (225) 
BAO_0000190

>  <potential_duplicate>  (225) 
False

>  <uo_units>  (225) 
UO_0000065

>  <canonical_smiles>  (225) 
CC(=O)NC[C@@H]1Cc2ccccc2CN1C(=O)[C@@H](N)Cc3c(C)cc(O)cc3C

>  <parent_molecule_chembl_id>  (225) 
CHEMBL80823

>  <assay_type>  (225) 
B

>  <src_id>  (225) 
1

>  <ligand_efficiency>  (225) 
{u'le': u'0.37', u'bei': u'19.71', u'sei': u'8.15', u'lle': u'5.52'}

>  <standard_flag>  (225) 
True

>  <molecule_chembl_id>  (225) 
CHEMBL80823

>  <target_organism>  (225) 
Homo sapiens

>  <standard_units>  (225) 
nM

>  <record_id>  (225) 
140316

>  <document_chembl_id>  (225) 
CHEMBL1134689

>  <bao_format>  (225) 
BAO_0000357

>  <data_validity_description>  (225) 
None

>  <activity_id>  (225) 
1046197

>  <standard_type>  (225) 
IC50

>  <target_chembl_id>  (225) 
CHEMBL233

>  <data_validity_comment>  (225) 
None

>  <published_value>  (225) 
16.1

>  <document_year>  (225) 
2001

>  <target_pref_name>  (225) 
Mu opioid receptor

>  <assay_chembl_id>  (225) 
CHEMBL757823

>  <standard_relation>  (225) 
=

>  <assay_description>  (225) 
Binding affinity at cloned human mu-opioid receptor

>  <published_relation>  (225) 
=

>  <standard_value>  (225) 
16.1

>  <qudt_units>  (225) 
http://www.openphacts.org/units/Nanomolar

>  <target_tax_id>  (225) 
9606

>  <bao_label>  (225) 
single protein format

>  <published_units>  (225) 
nM

>  <pchembl_value>  (225) 
7.79

>  <published_type>  (225) 
IC50

>  <activity_comment>  (225) 
None

$$$$

     RDKit          

 36 39  0  0  0  0  0  0  0  0999 V2000
    0.0000    0.0000    0.0000 C   0  0  0  0  0  0  0  0  0  0  0  0
    0.0000    0.0000    0.0000 O   0  0  0  0  0  0  0  0  0  0  0  0
    0.0000    0.0000    0.0000 C   0  0  0  0  0  0  0  0  0  0  0  0
    0.0000    0.0000    0.0000 C   0  0  0  0  0  0  0  0  0  0  0  0
    0.0000    0.0000    0.0000 C   0  0  0  0  0  0  0  0  0  0  0  0
    0.0000    0.0000    0.0000 C   0  0  0  0  0  0  0  0  0  0  0  0
    0.0000    0.0000    0.0000 N   0  0  0  0  0  0  0  0  0  0  0  0
    0.0000    0.0000    0.0000 C   0  0  0  0  0  0  0  0  0  0  0  0
    0.0000    0.0000    0.0000 C   0  0  0  0  0  0  0  0  0  0  0  0
    0.0000    0.0000    0.0000 C   0  0  0  0  0  0  0  0  0  0  0  0
    0.0000    0.0000    0.0000 C   0  0  0  0  0  0  0  0  0  0  0  0
    0.0000    0.0000    0.0000 C   0  0  0  0  0  0  0  0  0  0  0  0
    0.0000    0.0000    0.0000 C   0  0  0  0  0  0  0  0  0  0  0  0
    0.0000    0.0000    0.0000 C   0  0  0  0  0  0  0  0  0  0  0  0
    0.0000    0.0000    0.0000 C   0  0  0  0  0  0  0  0  0  0  0  0
    0.0000    0.0000    0.0000 C   0  0  0  0  0  0  0  0  0  0  0  0
    0.0000    0.0000    0.0000 F   0  0  0  0  0  0  0  0  0  0  0  0
    0.0000    0.0000    0.0000 C   0  0  0  0  0  0  0  0  0  0  0  0
    0.0000    0.0000    0.0000 C   0  0  0  0  0  0  0  0  0  0  0  0
    0.0000    0.0000    0.0000 C   0  0  0  0  0  0  0  0  0  0  0  0
    0.0000    0.0000    0.0000 O   0  0  0  0  0  0  0  0  0  0  0  0
    0.0000    0.0000    0.0000 O   0  0  0  0  0  0  0  0  0  0  0  0
    0.0000    0.0000    0.0000 C   0  0  0  0  0  0  0  0  0  0  0  0
    0.0000    0.0000    0.0000 O   0  0  0  0  0  0  0  0  0  0  0  0
    0.0000    0.0000    0.0000 C   0  0  0  0  0  0  0  0  0  0  0  0
    0.0000    0.0000    0.0000 N   0  0  0  0  0  0  0  0  0  0  0  0
    0.0000    0.0000    0.0000 C   0  0  0  0  0  0  0  0  0  0  0  0
    0.0000    0.0000    0.0000 C   0  0  0  0  0  0  0  0  0  0  0  0
    0.0000    0.0000    0.0000 C   0  0  0  0  0  0  0  0  0  0  0  0
    0.0000    0.0000    0.0000 C   0  0  0  0  0  0  0  0  0  0  0  0
    0.0000    0.0000    0.0000 C   0  0  0  0  0  0  0  0  0  0  0  0
    0.0000    0.0000    0.0000 C   0  0  0  0  0  0  0  0  0  0  0  0
    0.0000    0.0000    0.0000 O   0  0  0  0  0  0  0  0  0  0  0  0
    0.0000    0.0000    0.0000 C   0  0  0  0  0  0  0  0  0  0  0  0
    0.0000    0.0000    0.0000 C   0  0  0  0  0  0  0  0  0  0  0  0
    0.0000    0.0000    0.0000 C   0  0  0  0  0  0  0  0  0  0  0  0
  1  2  1  0
  2  3  1  0
  3  4  2  0
  4  5  1  0
  5  6  1  0
  6  7  1  0
  7  8  1  0
  8  9  1  0
  9 10  1  0
 10 11  1  0
 11 12  2  0
 12 13  1  0
 13 14  2  0
 14 15  1  0
 15 16  2  0
 16 17  1  0
 16 18  1  0
 18 19  2  0
  8 20  1  0
 20 21  2  0
 20 22  1  0
  7 23  1  0
 23 24  2  0
 23 25  1  0
 25 26  1  0
 25 27  1  0
 27 28  1  0
 28 29  2  0
 29 30  1  0
 29 31  1  0
 31 32  2  0
 32 33  1  0
 32 34  1  0
 34 35  2  0
 35 36  1  0
 12  3  1  0
 10  5  2  0
 19 13  1  0
 35 28  1  0
M  END
>  <pIC50>  (226) 
5.14

>  <ChEMBL_ID>  (226) 
CHEMBL47564

>  <document_journal>  (226) 
Bioorg. Med. Chem. Lett.

>  <bao_endpoint>  (226) 
BAO_0000190

>  <potential_duplicate>  (226) 
False

>  <uo_units>  (226) 
UO_0000065

>  <canonical_smiles>  (226) 
COc1cc2CN([C@@H](Cc2cc1c3ccc(F)cc3)C(=O)O)C(=O)C(N)Cc4c(C)cc(O)cc4C

>  <parent_molecule_chembl_id>  (226) 
CHEMBL47564

>  <assay_type>  (226) 
B

>  <src_id>  (226) 
1

>  <ligand_efficiency>  (226) 
{u'le': u'0.2', u'bei': u'10.44', u'sei': u'4.55', u'lle': u'3.25'}

>  <standard_flag>  (226) 
True

>  <molecule_chembl_id>  (226) 
CHEMBL47564

>  <target_organism>  (226) 
Homo sapiens

>  <standard_units>  (226) 
nM

>  <record_id>  (226) 
76662

>  <document_chembl_id>  (226) 
CHEMBL1132761

>  <bao_format>  (226) 
BAO_0000357

>  <data_validity_description>  (226) 
None

>  <activity_id>  (226) 
1047102

>  <standard_type>  (226) 
IC50

>  <target_chembl_id>  (226) 
CHEMBL233

>  <data_validity_comment>  (226) 
None

>  <published_value>  (226) 
7220

>  <document_year>  (226) 
2000

>  <target_pref_name>  (226) 
Mu opioid receptor

>  <assay_chembl_id>  (226) 
CHEMBL757307

>  <standard_relation>  (226) 
=

>  <assay_description>  (226) 
Compound was evaluated for binding affinity towards Opioid receptor mu 1 by displacing 125 I-FK-33824

>  <published_relation>  (226) 
=

>  <standard_value>  (226) 
7220

>  <qudt_units>  (226) 
http://www.openphacts.org/units/Nanomolar

>  <target_tax_id>  (226) 
9606

>  <bao_label>  (226) 
single protein format

>  <published_units>  (226) 
nM

>  <pchembl_value>  (226) 
5.14

>  <published_type>  (226) 
IC50

>  <activity_comment>  (226) 
None

$$$$

     RDKit          

 26 28  0  0  0  0  0  0  0  0999 V2000
    0.0000    0.0000    0.0000 C   0  0  0  0  0  0  0  0  0  0  0  0
    0.0000    0.0000    0.0000 C   0  0  0  0  0  0  0  0  0  0  0  0
    0.0000    0.0000    0.0000 C   0  0  0  0  0  0  0  0  0  0  0  0
    0.0000    0.0000    0.0000 C   0  0  0  0  0  0  0  0  0  0  0  0
    0.0000    0.0000    0.0000 O   0  0  0  0  0  0  0  0  0  0  0  0
    0.0000    0.0000    0.0000 C   0  0  0  0  0  0  0  0  0  0  0  0
    0.0000    0.0000    0.0000 C   0  0  0  0  0  0  0  0  0  0  0  0
    0.0000    0.0000    0.0000 C   0  0  0  0  0  0  0  0  0  0  0  0
    0.0000    0.0000    0.0000 C   0  0  0  0  0  0  0  0  0  0  0  0
    0.0000    0.0000    0.0000 C   0  0  0  0  0  0  0  0  0  0  0  0
    0.0000    0.0000    0.0000 N   0  0  0  0  0  0  0  0  0  0  0  0
    0.0000    0.0000    0.0000 C   0  0  0  0  0  0  0  0  0  0  0  0
    0.0000    0.0000    0.0000 O   0  0  0  0  0  0  0  0  0  0  0  0
    0.0000    0.0000    0.0000 C   0  0  0  0  0  0  0  0  0  0  0  0
    0.0000    0.0000    0.0000 C   0  0  0  0  0  0  0  0  0  0  0  0
    0.0000    0.0000    0.0000 C   0  0  0  0  0  0  0  0  0  0  0  0
    0.0000    0.0000    0.0000 C   0  0  0  0  0  0  0  0  0  0  0  0
    0.0000    0.0000    0.0000 C   0  0  0  0  0  0  0  0  0  0  0  0
    0.0000    0.0000    0.0000 C   0  0  0  0  0  0  0  0  0  0  0  0
    0.0000    0.0000    0.0000 C   0  0  0  0  0  0  0  0  0  0  0  0
    0.0000    0.0000    0.0000 C   0  0  0  0  0  0  0  0  0  0  0  0
    0.0000    0.0000    0.0000 C   0  0  0  0  0  0  0  0  0  0  0  0
    0.0000    0.0000    0.0000 N   0  0  0  0  0  0  0  0  0  0  0  0
    0.0000    0.0000    0.0000 C   0  0  0  0  0  0  0  0  0  0  0  0
    0.0000    0.0000    0.0000 O   0  0  0  0  0  0  0  0  0  0  0  0
    0.0000    0.0000    0.0000 O   0  0  0  0  0  0  0  0  0  0  0  0
  1  2  1  0
  2  3  2  0
  3  4  1  0
  4  5  1  0
  4  6  2  0
  6  7  1  0
  7  8  1  0
  7  9  2  0
  9 10  1  0
 10 11  1  0
 11 12  1  0
 12 13  2  0
 12 14  1  0
 14 15  1  0
 15 16  1  0
 16 17  2  0
 17 18  1  0
 18 19  2  0
 19 20  1  0
 20 21  2  0
 21 22  1  0
 22 23  1  0
 10 24  1  0
 24 25  2  0
 24 26  1  0
  9  2  1  0
 23 14  1  0
 21 16  1  0
M  END
>  <pIC50>  (227) 
6.05

>  <ChEMBL_ID>  (227) 
CHEMBL416788

>  <document_journal>  (227) 
J. Med. Chem.

>  <bao_endpoint>  (227) 
BAO_0000190

>  <potential_duplicate>  (227) 
False

>  <uo_units>  (227) 
UO_0000065

>  <canonical_smiles>  (227) 
Cc1cc(O)cc(C)c1C(NC(=O)C2Cc3ccccc3CN2)C(=O)O

>  <parent_molecule_chembl_id>  (227) 
CHEMBL416788

>  <assay_type>  (227) 
B

>  <src_id>  (227) 
1

>  <ligand_efficiency>  (227) 
{u'le': u'0.32', u'bei': u'17.07', u'sei': u'6.13', u'lle': u'6.19'}

>  <standard_flag>  (227) 
True

>  <molecule_chembl_id>  (227) 
CHEMBL416788

>  <target_organism>  (227) 
Homo sapiens

>  <standard_units>  (227) 
nM

>  <record_id>  (227) 
140312

>  <document_chembl_id>  (227) 
CHEMBL1134689

>  <bao_format>  (227) 
BAO_0000357

>  <data_validity_description>  (227) 
None

>  <activity_id>  (227) 
1047248

>  <standard_type>  (227) 
IC50

>  <target_chembl_id>  (227) 
CHEMBL233

>  <data_validity_comment>  (227) 
None

>  <published_value>  (227) 
894

>  <document_year>  (227) 
2001

>  <target_pref_name>  (227) 
Mu opioid receptor

>  <assay_chembl_id>  (227) 
CHEMBL757823

>  <standard_relation>  (227) 
=

>  <assay_description>  (227) 
Binding affinity at cloned human mu-opioid receptor

>  <published_relation>  (227) 
=

>  <standard_value>  (227) 
894

>  <qudt_units>  (227) 
http://www.openphacts.org/units/Nanomolar

>  <target_tax_id>  (227) 
9606

>  <bao_label>  (227) 
single protein format

>  <published_units>  (227) 
nM

>  <pchembl_value>  (227) 
6.05

>  <published_type>  (227) 
IC50

>  <activity_comment>  (227) 
None

$$$$

     RDKit          

 35 38  0  0  0  0  0  0  0  0999 V2000
    0.0000    0.0000    0.0000 C   0  0  0  0  0  0  0  0  0  0  0  0
    0.0000    0.0000    0.0000 C   0  0  0  0  0  0  0  0  0  0  0  0
    0.0000    0.0000    0.0000 C   0  0  0  0  0  0  0  0  0  0  0  0
    0.0000    0.0000    0.0000 C   0  0  0  0  0  0  0  0  0  0  0  0
    0.0000    0.0000    0.0000 O   0  0  0  0  0  0  0  0  0  0  0  0
    0.0000    0.0000    0.0000 C   0  0  0  0  0  0  0  0  0  0  0  0
    0.0000    0.0000    0.0000 C   0  0  0  0  0  0  0  0  0  0  0  0
    0.0000    0.0000    0.0000 C   0  0  0  0  0  0  0  0  0  0  0  0
    0.0000    0.0000    0.0000 C   0  0  0  0  0  0  0  0  0  0  0  0
    0.0000    0.0000    0.0000 C   0  0  0  0  0  0  0  0  0  0  0  0
    0.0000    0.0000    0.0000 C   0  0  0  0  0  0  0  0  0  0  0  0
    0.0000    0.0000    0.0000 N   0  0  0  0  0  0  0  0  0  0  0  0
    0.0000    0.0000    0.0000 C   0  0  0  0  0  0  0  0  0  0  0  0
    0.0000    0.0000    0.0000 O   0  0  0  0  0  0  0  0  0  0  0  0
    0.0000    0.0000    0.0000 N   0  0  0  0  0  0  0  0  0  0  0  0
    0.0000    0.0000    0.0000 C   0  0  0  0  0  0  0  0  0  0  0  0
    0.0000    0.0000    0.0000 C   0  0  0  0  0  0  0  0  0  0  0  0
    0.0000    0.0000    0.0000 C   0  0  0  0  0  0  0  0  0  0  0  0
    0.0000    0.0000    0.0000 C   0  0  0  0  0  0  0  0  0  0  0  0
    0.0000    0.0000    0.0000 C   0  0  0  0  0  0  0  0  0  0  0  0
    0.0000    0.0000    0.0000 C   0  0  0  0  0  0  0  0  0  0  0  0
    0.0000    0.0000    0.0000 C   0  0  0  0  0  0  0  0  0  0  0  0
    0.0000    0.0000    0.0000 C   0  0  0  0  0  0  0  0  0  0  0  0
    0.0000    0.0000    0.0000 C   0  0  0  0  0  0  0  0  0  0  0  0
    0.0000    0.0000    0.0000 C   0  0  0  0  0  0  0  0  0  0  0  0
    0.0000    0.0000    0.0000 N   0  0  0  0  0  0  0  0  0  0  0  0
    0.0000    0.0000    0.0000 C   0  0  0  0  0  0  0  0  0  0  0  0
    0.0000    0.0000    0.0000 O   0  0  0  0  0  0  0  0  0  0  0  0
    0.0000    0.0000    0.0000 N   0  0  0  0  0  0  0  0  0  0  0  0
    0.0000    0.0000    0.0000 C   0  0  0  0  0  0  0  0  0  0  0  0
    0.0000    0.0000    0.0000 C   0  0  0  0  0  0  0  0  0  0  0  0
    0.0000    0.0000    0.0000 C   0  0  0  0  0  0  0  0  0  0  0  0
    0.0000    0.0000    0.0000 C   0  0  0  0  0  0  0  0  0  0  0  0
    0.0000    0.0000    0.0000 C   0  0  0  0  0  0  0  0  0  0  0  0
    0.0000    0.0000    0.0000 C   0  0  0  0  0  0  0  0  0  0  0  0
  1  2  1  0
  2  3  2  0
  3  4  1  0
  4  5  1  0
  4  6  2  0
  6  7  1  0
  7  8  1  0
  7  9  2  0
  9 10  1  0
 10 11  1  0
 11 12  1  0
 11 13  1  0
 13 14  2  0
 13 15  1  0
 15 16  1  0
 16 17  1  0
 17 18  2  0
 18 19  1  0
 19 20  2  0
 20 21  1  0
 21 22  2  0
 22 23  1  0
 23 24  1  0
 24 25  1  0
 25 26  1  0
 26 27  1  0
 27 28  2  0
 27 29  1  0
 29 30  1  0
 30 31  2  0
 31 32  1  0
 32 33  2  0
 33 34  1  0
 34 35  2  0
  9  2  1  0
 24 15  1  0
 22 17  1  0
 35 30  1  0
M  END
>  <pIC50>  (228) 
9.0

>  <ChEMBL_ID>  (228) 
CHEMBL80463

>  <document_journal>  (228) 
J. Med. Chem.

>  <bao_endpoint>  (228) 
BAO_0000190

>  <potential_duplicate>  (228) 
False

>  <uo_units>  (228) 
UO_0000065

>  <canonical_smiles>  (228) 
Cc1cc(O)cc(C)c1C[C@H](N)C(=O)N2Cc3ccccc3C[C@H]2CNC(=O)Nc4ccccc4

>  <parent_molecule_chembl_id>  (228) 
CHEMBL80463

>  <assay_type>  (228) 
B

>  <src_id>  (228) 
1

>  <ligand_efficiency>  (228) 
{u'le': u'0.35', u'bei': u'19.04', u'sei': u'8.36', u'lle': u'5.16'}

>  <standard_flag>  (228) 
True

>  <molecule_chembl_id>  (228) 
CHEMBL80463

>  <target_organism>  (228) 
Homo sapiens

>  <standard_units>  (228) 
nM

>  <record_id>  (228) 
140321

>  <document_chembl_id>  (228) 
CHEMBL1134689

>  <bao_format>  (228) 
BAO_0000357

>  <data_validity_description>  (228) 
None

>  <activity_id>  (228) 
1048566

>  <standard_type>  (228) 
IC50

>  <target_chembl_id>  (228) 
CHEMBL233

>  <data_validity_comment>  (228) 
None

>  <published_value>  (228) 
1

>  <document_year>  (228) 
2001

>  <target_pref_name>  (228) 
Mu opioid receptor

>  <assay_chembl_id>  (228) 
CHEMBL757823

>  <standard_relation>  (228) 
=

>  <assay_description>  (228) 
Binding affinity at cloned human mu-opioid receptor

>  <published_relation>  (228) 
=

>  <standard_value>  (228) 
1

>  <qudt_units>  (228) 
http://www.openphacts.org/units/Nanomolar

>  <target_tax_id>  (228) 
9606

>  <bao_label>  (228) 
single protein format

>  <published_units>  (228) 
nM

>  <pchembl_value>  (228) 
9

>  <published_type>  (228) 
IC50

>  <activity_comment>  (228) 
None

$$$$

     RDKit          

 31 33  0  0  0  0  0  0  0  0999 V2000
    0.0000    0.0000    0.0000 C   0  0  0  0  0  0  0  0  0  0  0  0
    0.0000    0.0000    0.0000 O   0  0  0  0  0  0  0  0  0  0  0  0
    0.0000    0.0000    0.0000 C   0  0  0  0  0  0  0  0  0  0  0  0
    0.0000    0.0000    0.0000 C   0  0  0  0  0  0  0  0  0  0  0  0
    0.0000    0.0000    0.0000 Br  0  0  0  0  0  0  0  0  0  0  0  0
    0.0000    0.0000    0.0000 C   0  0  0  0  0  0  0  0  0  0  0  0
    0.0000    0.0000    0.0000 C   0  0  0  0  0  0  0  0  0  0  0  0
    0.0000    0.0000    0.0000 C   0  0  0  0  0  0  0  0  0  0  0  0
    0.0000    0.0000    0.0000 C   0  0  0  0  0  0  0  0  0  0  0  0
    0.0000    0.0000    0.0000 N   0  0  0  0  0  0  0  0  0  0  0  0
    0.0000    0.0000    0.0000 C   0  0  0  0  0  0  0  0  0  0  0  0
    0.0000    0.0000    0.0000 C   0  0  0  0  0  0  0  0  0  0  0  0
    0.0000    0.0000    0.0000 C   0  0  0  0  0  0  0  0  0  0  0  0
    0.0000    0.0000    0.0000 Br  0  0  0  0  0  0  0  0  0  0  0  0
    0.0000    0.0000    0.0000 C   0  0  0  0  0  0  0  0  0  0  0  0
    0.0000    0.0000    0.0000 O   0  0  0  0  0  0  0  0  0  0  0  0
    0.0000    0.0000    0.0000 C   0  0  0  0  0  0  0  0  0  0  0  0
    0.0000    0.0000    0.0000 N   0  0  0  0  0  0  0  0  0  0  0  0
    0.0000    0.0000    0.0000 C   0  0  0  0  0  0  0  0  0  0  0  0
    0.0000    0.0000    0.0000 C   0  0  0  0  0  0  0  0  0  0  0  0
    0.0000    0.0000    0.0000 C   0  0  0  0  0  0  0  0  0  0  0  0
    0.0000    0.0000    0.0000 C   0  0  0  0  0  0  0  0  0  0  0  0
    0.0000    0.0000    0.0000 C   0  0  0  0  0  0  0  0  0  0  0  0
    0.0000    0.0000    0.0000 C   0  0  0  0  0  0  0  0  0  0  0  0
    0.0000    0.0000    0.0000 O   0  0  0  0  0  0  0  0  0  0  0  0
    0.0000    0.0000    0.0000 C   0  0  0  0  0  0  0  0  0  0  0  0
    0.0000    0.0000    0.0000 C   0  0  0  0  0  0  0  0  0  0  0  0
    0.0000    0.0000    0.0000 C   0  0  0  0  0  0  0  0  0  0  0  0
    0.0000    0.0000    0.0000 C   0  0  0  0  0  0  0  0  0  0  0  0
    0.0000    0.0000    0.0000 O   0  0  0  0  0  0  0  0  0  0  0  0
    0.0000    0.0000    0.0000 O   0  0  0  0  0  0  0  0  0  0  0  0
  1  2  1  0
  2  3  1  0
  3  4  2  0
  4  5  1  0
  4  6  1  0
  6  7  2  0
  7  8  1  0
  8  9  1  0
  9 10  1  0
 10 11  1  0
 11 12  1  0
 12 13  2  0
 13 14  1  0
 10 15  1  0
 15 16  2  0
 15 17  1  0
 17 18  1  0
 17 19  1  0
 19 20  1  0
 20 21  2  0
 21 22  1  0
 21 23  1  0
 23 24  2  0
 24 25  1  0
 24 26  1  0
 26 27  2  0
 27 28  1  0
  9 29  1  0
 29 30  2  0
 29 31  1  0
 13  3  1  0
 12  7  1  0
 27 20  1  0
M  END
>  <pIC50>  (229) 
5.78

>  <ChEMBL_ID>  (229) 
CHEMBL2114981

>  <document_journal>  (229) 
Bioorg. Med. Chem. Lett.

>  <bao_endpoint>  (229) 
BAO_0000190

>  <potential_duplicate>  (229) 
False

>  <uo_units>  (229) 
UO_0000065

>  <canonical_smiles>  (229) 
COc1c(Br)cc2C[C@H](N(Cc2c1Br)C(=O)[C@@H](N)Cc3c(C)cc(O)cc3C)C(=O)O

>  <parent_molecule_chembl_id>  (229) 
CHEMBL2114981

>  <assay_type>  (229) 
B

>  <src_id>  (229) 
1

>  <ligand_efficiency>  (229) 
{u'le': u'0.25', u'bei': u'10.39', u'sei': u'5.11', u'lle': u'4.11'}

>  <standard_flag>  (229) 
True

>  <molecule_chembl_id>  (229) 
CHEMBL2114981

>  <target_organism>  (229) 
Homo sapiens

>  <standard_units>  (229) 
nM

>  <record_id>  (229) 
76675

>  <document_chembl_id>  (229) 
CHEMBL1132761

>  <bao_format>  (229) 
BAO_0000357

>  <data_validity_description>  (229) 
None

>  <activity_id>  (229) 
1049436

>  <standard_type>  (229) 
IC50

>  <target_chembl_id>  (229) 
CHEMBL233

>  <data_validity_comment>  (229) 
None

>  <published_value>  (229) 
1670

>  <document_year>  (229) 
2000

>  <target_pref_name>  (229) 
Mu opioid receptor

>  <assay_chembl_id>  (229) 
CHEMBL757307

>  <standard_relation>  (229) 
=

>  <assay_description>  (229) 
Compound was evaluated for binding affinity towards Opioid receptor mu 1 by displacing 125 I-FK-33824

>  <published_relation>  (229) 
=

>  <standard_value>  (229) 
1670

>  <qudt_units>  (229) 
http://www.openphacts.org/units/Nanomolar

>  <target_tax_id>  (229) 
9606

>  <bao_label>  (229) 
single protein format

>  <published_units>  (229) 
nM

>  <pchembl_value>  (229) 
5.78

>  <published_type>  (229) 
IC50

>  <activity_comment>  (229) 
None

$$$$

     RDKit          

 29 31  0  0  0  0  0  0  0  0999 V2000
    0.0000    0.0000    0.0000 C   0  0  0  0  0  0  0  0  0  0  0  0
    0.0000    0.0000    0.0000 C   0  0  0  0  0  0  0  0  0  0  0  0
    0.0000    0.0000    0.0000 O   0  0  0  0  0  0  0  0  0  0  0  0
    0.0000    0.0000    0.0000 O   0  0  0  0  0  0  0  0  0  0  0  0
    0.0000    0.0000    0.0000 C   0  0  0  0  0  0  0  0  0  0  0  0
    0.0000    0.0000    0.0000 C   0  0  0  0  0  0  0  0  0  0  0  0
    0.0000    0.0000    0.0000 C   0  0  0  0  0  0  0  0  0  0  0  0
    0.0000    0.0000    0.0000 C   0  0  0  0  0  0  0  0  0  0  0  0
    0.0000    0.0000    0.0000 C   0  0  0  0  0  0  0  0  0  0  0  0
    0.0000    0.0000    0.0000 C   0  0  0  0  0  0  0  0  0  0  0  0
    0.0000    0.0000    0.0000 C   0  0  0  0  0  0  0  0  0  0  0  0
    0.0000    0.0000    0.0000 C   0  0  0  0  0  0  0  0  0  0  0  0
    0.0000    0.0000    0.0000 C   0  0  0  0  0  0  0  0  0  0  0  0
    0.0000    0.0000    0.0000 C   0  0  0  0  0  0  0  0  0  0  0  0
    0.0000    0.0000    0.0000 N   0  0  0  0  0  0  0  0  0  0  0  0
    0.0000    0.0000    0.0000 C   0  0  0  0  0  0  0  0  0  0  0  0
    0.0000    0.0000    0.0000 O   0  0  0  0  0  0  0  0  0  0  0  0
    0.0000    0.0000    0.0000 C   0  0  0  0  0  0  0  0  0  0  0  0
    0.0000    0.0000    0.0000 N   0  0  0  0  0  0  0  0  0  0  0  0
    0.0000    0.0000    0.0000 C   0  0  0  0  0  0  0  0  0  0  0  0
    0.0000    0.0000    0.0000 C   0  0  0  0  0  0  0  0  0  0  0  0
    0.0000    0.0000    0.0000 C   0  0  0  0  0  0  0  0  0  0  0  0
    0.0000    0.0000    0.0000 C   0  0  0  0  0  0  0  0  0  0  0  0
    0.0000    0.0000    0.0000 C   0  0  0  0  0  0  0  0  0  0  0  0
    0.0000    0.0000    0.0000 C   0  0  0  0  0  0  0  0  0  0  0  0
    0.0000    0.0000    0.0000 O   0  0  0  0  0  0  0  0  0  0  0  0
    0.0000    0.0000    0.0000 C   0  0  0  0  0  0  0  0  0  0  0  0
    0.0000    0.0000    0.0000 C   0  0  0  0  0  0  0  0  0  0  0  0
    0.0000    0.0000    0.0000 C   0  0  0  0  0  0  0  0  0  0  0  0
  1  2  1  0
  2  3  2  0
  2  4  1  0
  4  5  1  0
  5  6  1  0
  6  7  1  0
  7  8  1  0
  8  9  2  0
  9 10  1  0
 10 11  2  0
 11 12  1  0
 12 13  2  0
 13 14  1  0
 14 15  1  0
 15 16  1  0
 16 17  2  0
 16 18  1  0
 18 19  1  0
 18 20  1  0
 20 21  1  0
 21 22  2  0
 22 23  1  0
 22 24  1  0
 24 25  2  0
 25 26  1  0
 25 27  1  0
 27 28  2  0
 28 29  1  0
 15  6  1  0
 13  8  1  0
 28 21  1  0
M  END
>  <pIC50>  (230) 
8.33

>  <ChEMBL_ID>  (230) 
CHEMBL312792

>  <document_journal>  (230) 
J. Med. Chem.

>  <bao_endpoint>  (230) 
BAO_0000190

>  <potential_duplicate>  (230) 
False

>  <uo_units>  (230) 
UO_0000065

>  <canonical_smiles>  (230) 
CC(=O)OC[C@@H]1Cc2ccccc2CN1C(=O)[C@@H](N)Cc3c(C)cc(O)cc3C

>  <parent_molecule_chembl_id>  (230) 
CHEMBL312792

>  <assay_type>  (230) 
B

>  <src_id>  (230) 
1

>  <ligand_efficiency>  (230) 
{u'le': u'0.39', u'bei': u'21', u'sei': u'8.97', u'lle': u'5.41'}

>  <standard_flag>  (230) 
True

>  <molecule_chembl_id>  (230) 
CHEMBL312792

>  <target_organism>  (230) 
Homo sapiens

>  <standard_units>  (230) 
nM

>  <record_id>  (230) 
140308

>  <document_chembl_id>  (230) 
CHEMBL1134689

>  <bao_format>  (230) 
BAO_0000357

>  <data_validity_description>  (230) 
None

>  <activity_id>  (230) 
1049687

>  <standard_type>  (230) 
IC50

>  <target_chembl_id>  (230) 
CHEMBL233

>  <data_validity_comment>  (230) 
None

>  <published_value>  (230) 
4.7

>  <document_year>  (230) 
2001

>  <target_pref_name>  (230) 
Mu opioid receptor

>  <assay_chembl_id>  (230) 
CHEMBL757823

>  <standard_relation>  (230) 
=

>  <assay_description>  (230) 
Binding affinity at cloned human mu-opioid receptor

>  <published_relation>  (230) 
=

>  <standard_value>  (230) 
4.7

>  <qudt_units>  (230) 
http://www.openphacts.org/units/Nanomolar

>  <target_tax_id>  (230) 
9606

>  <bao_label>  (230) 
single protein format

>  <published_units>  (230) 
nM

>  <pchembl_value>  (230) 
8.33

>  <published_type>  (230) 
IC50

>  <activity_comment>  (230) 
None

$$$$

     RDKit          

 29 31  0  0  0  0  0  0  0  0999 V2000
    0.0000    0.0000    0.0000 C   0  0  0  0  0  0  0  0  0  0  0  0
    0.0000    0.0000    0.0000 C   0  0  0  0  0  0  0  0  0  0  0  0
    0.0000    0.0000    0.0000 N   0  0  0  0  0  0  0  0  0  0  0  0
    0.0000    0.0000    0.0000 N   0  0  0  0  0  0  0  0  0  0  0  0
    0.0000    0.0000    0.0000 C   0  0  0  0  0  0  0  0  0  0  0  0
    0.0000    0.0000    0.0000 C   0  0  0  0  0  0  0  0  0  0  0  0
    0.0000    0.0000    0.0000 C   0  0  0  0  0  0  0  0  0  0  0  0
    0.0000    0.0000    0.0000 C   0  0  0  0  0  0  0  0  0  0  0  0
    0.0000    0.0000    0.0000 C   0  0  0  0  0  0  0  0  0  0  0  0
    0.0000    0.0000    0.0000 C   0  0  0  0  0  0  0  0  0  0  0  0
    0.0000    0.0000    0.0000 C   0  0  0  0  0  0  0  0  0  0  0  0
    0.0000    0.0000    0.0000 C   0  0  0  0  0  0  0  0  0  0  0  0
    0.0000    0.0000    0.0000 C   0  0  0  0  0  0  0  0  0  0  0  0
    0.0000    0.0000    0.0000 C   0  0  0  0  0  0  0  0  0  0  0  0
    0.0000    0.0000    0.0000 N   0  0  0  0  0  0  0  0  0  0  0  0
    0.0000    0.0000    0.0000 C   0  0  0  0  0  0  0  0  0  0  0  0
    0.0000    0.0000    0.0000 O   0  0  0  0  0  0  0  0  0  0  0  0
    0.0000    0.0000    0.0000 C   0  0  0  0  0  0  0  0  0  0  0  0
    0.0000    0.0000    0.0000 N   0  0  0  0  0  0  0  0  0  0  0  0
    0.0000    0.0000    0.0000 C   0  0  0  0  0  0  0  0  0  0  0  0
    0.0000    0.0000    0.0000 C   0  0  0  0  0  0  0  0  0  0  0  0
    0.0000    0.0000    0.0000 C   0  0  0  0  0  0  0  0  0  0  0  0
    0.0000    0.0000    0.0000 C   0  0  0  0  0  0  0  0  0  0  0  0
    0.0000    0.0000    0.0000 C   0  0  0  0  0  0  0  0  0  0  0  0
    0.0000    0.0000    0.0000 C   0  0  0  0  0  0  0  0  0  0  0  0
    0.0000    0.0000    0.0000 O   0  0  0  0  0  0  0  0  0  0  0  0
    0.0000    0.0000    0.0000 C   0  0  0  0  0  0  0  0  0  0  0  0
    0.0000    0.0000    0.0000 C   0  0  0  0  0  0  0  0  0  0  0  0
    0.0000    0.0000    0.0000 C   0  0  0  0  0  0  0  0  0  0  0  0
  1  2  1  0
  2  3  2  0
  2  4  1  0
  4  5  1  0
  5  6  1  0
  6  7  1  0
  7  8  1  0
  8  9  2  0
  9 10  1  0
 10 11  2  0
 11 12  1  0
 12 13  2  0
 13 14  1  0
 14 15  1  0
 15 16  1  0
 16 17  2  0
 16 18  1  0
 18 19  1  0
 18 20  1  0
 20 21  1  0
 21 22  2  0
 22 23  1  0
 22 24  1  0
 24 25  2  0
 25 26  1  0
 25 27  1  0
 27 28  2  0
 28 29  1  0
 15  6  1  0
 13  8  1  0
 28 21  1  0
M  END
>  <pIC50>  (231) 
7.48

>  <ChEMBL_ID>  (231) 
CHEMBL310146

>  <document_journal>  (231) 
J. Med. Chem.

>  <bao_endpoint>  (231) 
BAO_0000190

>  <potential_duplicate>  (231) 
False

>  <uo_units>  (231) 
UO_0000065

>  <canonical_smiles>  (231) 
CC(=N)NC[C@@H]1Cc2ccccc2CN1C(=O)[C@@H](N)Cc3c(C)cc(O)cc3C

>  <parent_molecule_chembl_id>  (231) 
CHEMBL310146

>  <assay_type>  (231) 
B

>  <src_id>  (231) 
1

>  <ligand_efficiency>  (231) 
{u'le': u'0.35', u'bei': u'18.96', u'sei': u'7.3', u'lle': u'5.16'}

>  <standard_flag>  (231) 
True

>  <molecule_chembl_id>  (231) 
CHEMBL310146

>  <target_organism>  (231) 
Homo sapiens

>  <standard_units>  (231) 
nM

>  <record_id>  (231) 
140327

>  <document_chembl_id>  (231) 
CHEMBL1134689

>  <bao_format>  (231) 
BAO_0000357

>  <data_validity_description>  (231) 
None

>  <activity_id>  (231) 
1052149

>  <standard_type>  (231) 
IC50

>  <target_chembl_id>  (231) 
CHEMBL233

>  <data_validity_comment>  (231) 
None

>  <published_value>  (231) 
33.2

>  <document_year>  (231) 
2001

>  <target_pref_name>  (231) 
Mu opioid receptor

>  <assay_chembl_id>  (231) 
CHEMBL757823

>  <standard_relation>  (231) 
=

>  <assay_description>  (231) 
Binding affinity at cloned human mu-opioid receptor

>  <published_relation>  (231) 
=

>  <standard_value>  (231) 
33.2

>  <qudt_units>  (231) 
http://www.openphacts.org/units/Nanomolar

>  <target_tax_id>  (231) 
9606

>  <bao_label>  (231) 
single protein format

>  <published_units>  (231) 
nM

>  <pchembl_value>  (231) 
7.48

>  <published_type>  (231) 
IC50

>  <activity_comment>  (231) 
None

$$$$

     RDKit          

 30 32  0  0  0  0  0  0  0  0999 V2000
    0.0000    0.0000    0.0000 C   0  0  0  0  0  0  0  0  0  0  0  0
    0.0000    0.0000    0.0000 C   0  0  0  0  0  0  0  0  0  0  0  0
    0.0000    0.0000    0.0000 C   0  0  0  0  0  0  0  0  0  0  0  0
    0.0000    0.0000    0.0000 C   0  0  0  0  0  0  0  0  0  0  0  0
    0.0000    0.0000    0.0000 O   0  0  0  0  0  0  0  0  0  0  0  0
    0.0000    0.0000    0.0000 C   0  0  0  0  0  0  0  0  0  0  0  0
    0.0000    0.0000    0.0000 C   0  0  0  0  0  0  0  0  0  0  0  0
    0.0000    0.0000    0.0000 C   0  0  0  0  0  0  0  0  0  0  0  0
    0.0000    0.0000    0.0000 C   0  0  0  0  0  0  0  0  0  0  0  0
    0.0000    0.0000    0.0000 C   0  0  0  0  0  0  0  0  0  0  0  0
    0.0000    0.0000    0.0000 C   0  0  0  0  0  0  0  0  0  0  0  0
    0.0000    0.0000    0.0000 N   0  0  0  0  0  0  0  0  0  0  0  0
    0.0000    0.0000    0.0000 C   0  0  0  0  0  0  0  0  0  0  0  0
    0.0000    0.0000    0.0000 O   0  0  0  0  0  0  0  0  0  0  0  0
    0.0000    0.0000    0.0000 N   0  0  0  0  0  0  0  0  0  0  0  0
    0.0000    0.0000    0.0000 C   0  0  0  0  0  0  0  0  0  0  0  0
    0.0000    0.0000    0.0000 C   0  0  0  0  0  0  0  0  0  0  0  0
    0.0000    0.0000    0.0000 C   0  0  0  0  0  0  0  0  0  0  0  0
    0.0000    0.0000    0.0000 Br  0  0  0  0  0  0  0  0  0  0  0  0
    0.0000    0.0000    0.0000 C   0  0  0  0  0  0  0  0  0  0  0  0
    0.0000    0.0000    0.0000 O   0  0  0  0  0  0  0  0  0  0  0  0
    0.0000    0.0000    0.0000 C   0  0  0  0  0  0  0  0  0  0  0  0
    0.0000    0.0000    0.0000 Br  0  0  0  0  0  0  0  0  0  0  0  0
    0.0000    0.0000    0.0000 C   0  0  0  0  0  0  0  0  0  0  0  0
    0.0000    0.0000    0.0000 C   0  0  0  0  0  0  0  0  0  0  0  0
    0.0000    0.0000    0.0000 C   0  0  0  0  0  0  0  0  0  0  0  0
    0.0000    0.0000    0.0000 C   0  0  0  0  0  0  0  0  0  0  0  0
    0.0000    0.0000    0.0000 C   0  0  0  0  0  0  0  0  0  0  0  0
    0.0000    0.0000    0.0000 O   0  0  0  0  0  0  0  0  0  0  0  0
    0.0000    0.0000    0.0000 O   0  0  0  0  0  0  0  0  0  0  0  0
  1  2  1  0
  2  3  2  0
  3  4  1  0
  4  5  1  0
  4  6  2  0
  6  7  1  0
  7  8  1  0
  7  9  2  0
  9 10  1  0
 10 11  1  0
 11 12  1  0
 11 13  1  0
 13 14  2  0
 13 15  1  0
 15 16  1  0
 16 17  1  0
 17 18  2  0
 18 19  1  0
 18 20  1  0
 20 21  1  0
 20 22  2  0
 22 23  1  0
 22 24  1  0
 24 25  2  0
 25 26  1  0
 26 27  1  0
 27 28  1  0
 28 29  2  0
 28 30  1  0
  9  2  1  0
 27 15  1  0
 25 17  1  0
M  END
>  <pIC50>  (232) 
5.91

>  <ChEMBL_ID>  (232) 
CHEMBL2114986

>  <document_journal>  (232) 
Bioorg. Med. Chem. Lett.

>  <bao_endpoint>  (232) 
BAO_0000190

>  <potential_duplicate>  (232) 
False

>  <uo_units>  (232) 
UO_0000065

>  <canonical_smiles>  (232) 
Cc1cc(O)cc(C)c1C[C@H](N)C(=O)N2Cc3c(Br)c(O)c(Br)cc3C[C@H]2C(=O)O

>  <parent_molecule_chembl_id>  (232) 
CHEMBL2114986

>  <assay_type>  (232) 
B

>  <src_id>  (232) 
1

>  <ligand_efficiency>  (232) 
{u'le': u'0.27', u'bei': u'10.89', u'sei': u'4.76', u'lle': u'4.47'}

>  <standard_flag>  (232) 
True

>  <molecule_chembl_id>  (232) 
CHEMBL2114986

>  <target_organism>  (232) 
Homo sapiens

>  <standard_units>  (232) 
nM

>  <record_id>  (232) 
76674

>  <document_chembl_id>  (232) 
CHEMBL1132761

>  <bao_format>  (232) 
BAO_0000357

>  <data_validity_description>  (232) 
None

>  <activity_id>  (232) 
1053161

>  <standard_type>  (232) 
IC50

>  <target_chembl_id>  (232) 
CHEMBL233

>  <data_validity_comment>  (232) 
None

>  <published_value>  (232) 
1240

>  <document_year>  (232) 
2000

>  <target_pref_name>  (232) 
Mu opioid receptor

>  <assay_chembl_id>  (232) 
CHEMBL757307

>  <standard_relation>  (232) 
=

>  <assay_description>  (232) 
Compound was evaluated for binding affinity towards Opioid receptor mu 1 by displacing 125 I-FK-33824

>  <published_relation>  (232) 
=

>  <standard_value>  (232) 
1240

>  <qudt_units>  (232) 
http://www.openphacts.org/units/Nanomolar

>  <target_tax_id>  (232) 
9606

>  <bao_label>  (232) 
single protein format

>  <published_units>  (232) 
nM

>  <pchembl_value>  (232) 
5.91

>  <published_type>  (232) 
IC50

>  <activity_comment>  (232) 
None

$$$$

     RDKit          

 26 28  0  0  0  0  0  0  0  0999 V2000
    0.0000    0.0000    0.0000 C   0  0  0  0  0  0  0  0  0  0  0  0
    0.0000    0.0000    0.0000 C   0  0  0  0  0  0  0  0  0  0  0  0
    0.0000    0.0000    0.0000 C   0  0  0  0  0  0  0  0  0  0  0  0
    0.0000    0.0000    0.0000 C   0  0  0  0  0  0  0  0  0  0  0  0
    0.0000    0.0000    0.0000 O   0  0  0  0  0  0  0  0  0  0  0  0
    0.0000    0.0000    0.0000 C   0  0  0  0  0  0  0  0  0  0  0  0
    0.0000    0.0000    0.0000 C   0  0  0  0  0  0  0  0  0  0  0  0
    0.0000    0.0000    0.0000 C   0  0  0  0  0  0  0  0  0  0  0  0
    0.0000    0.0000    0.0000 C   0  0  0  0  0  0  0  0  0  0  0  0
    0.0000    0.0000    0.0000 C   0  0  0  0  0  0  0  0  0  0  0  0
    0.0000    0.0000    0.0000 C   0  0  0  0  0  0  0  0  0  0  0  0
    0.0000    0.0000    0.0000 N   0  0  0  0  0  0  0  0  0  0  0  0
    0.0000    0.0000    0.0000 C   0  0  0  0  0  0  0  0  0  0  0  0
    0.0000    0.0000    0.0000 O   0  0  0  0  0  0  0  0  0  0  0  0
    0.0000    0.0000    0.0000 N   0  0  0  0  0  0  0  0  0  0  0  0
    0.0000    0.0000    0.0000 C   0  0  0  0  0  0  0  0  0  0  0  0
    0.0000    0.0000    0.0000 C   0  0  0  0  0  0  0  0  0  0  0  0
    0.0000    0.0000    0.0000 C   0  0  0  0  0  0  0  0  0  0  0  0
    0.0000    0.0000    0.0000 C   0  0  0  0  0  0  0  0  0  0  0  0
    0.0000    0.0000    0.0000 C   0  0  0  0  0  0  0  0  0  0  0  0
    0.0000    0.0000    0.0000 C   0  0  0  0  0  0  0  0  0  0  0  0
    0.0000    0.0000    0.0000 C   0  0  0  0  0  0  0  0  0  0  0  0
    0.0000    0.0000    0.0000 C   0  0  0  0  0  0  0  0  0  0  0  0
    0.0000    0.0000    0.0000 C   0  0  0  0  0  0  0  0  0  0  0  0
    0.0000    0.0000    0.0000 C   0  0  0  0  0  0  0  0  0  0  0  0
    0.0000    0.0000    0.0000 N   0  0  0  0  0  0  0  0  0  0  0  0
  1  2  1  0
  2  3  2  0
  3  4  1  0
  4  5  1  0
  4  6  2  0
  6  7  1  0
  7  8  1  0
  7  9  2  0
  9 10  1  0
 10 11  1  0
 11 12  1  0
 11 13  1  0
 13 14  2  0
 13 15  1  0
 15 16  1  0
 16 17  1  0
 17 18  2  0
 18 19  1  0
 19 20  2  0
 20 21  1  0
 21 22  2  0
 22 23  1  0
 23 24  1  0
 24 25  1  0
 25 26  1  0
  9  2  1  0
 24 15  1  0
 22 17  1  0
M  END
>  <pIC50>  (233) 
6.95

>  <ChEMBL_ID>  (233) 
CHEMBL80197

>  <document_journal>  (233) 
J. Med. Chem.

>  <bao_endpoint>  (233) 
BAO_0000190

>  <potential_duplicate>  (233) 
False

>  <uo_units>  (233) 
UO_0000065

>  <canonical_smiles>  (233) 
Cc1cc(O)cc(C)c1C[C@H](N)C(=O)N2Cc3ccccc3C[C@H]2CN

>  <parent_molecule_chembl_id>  (233) 
CHEMBL80197

>  <assay_type>  (233) 
B

>  <src_id>  (233) 
1

>  <ligand_efficiency>  (233) 
{u'le': u'0.36', u'bei': u'19.65', u'sei': u'7.5', u'lle': u'4.7'}

>  <standard_flag>  (233) 
True

>  <molecule_chembl_id>  (233) 
CHEMBL80197

>  <target_organism>  (233) 
Homo sapiens

>  <standard_units>  (233) 
nM

>  <record_id>  (233) 
140311

>  <document_chembl_id>  (233) 
CHEMBL1134689

>  <bao_format>  (233) 
BAO_0000357

>  <data_validity_description>  (233) 
None

>  <activity_id>  (233) 
1053297

>  <standard_type>  (233) 
IC50

>  <target_chembl_id>  (233) 
CHEMBL233

>  <data_validity_comment>  (233) 
None

>  <published_value>  (233) 
113

>  <document_year>  (233) 
2001

>  <target_pref_name>  (233) 
Mu opioid receptor

>  <assay_chembl_id>  (233) 
CHEMBL757823

>  <standard_relation>  (233) 
=

>  <assay_description>  (233) 
Binding affinity at cloned human mu-opioid receptor

>  <published_relation>  (233) 
=

>  <standard_value>  (233) 
113

>  <qudt_units>  (233) 
http://www.openphacts.org/units/Nanomolar

>  <target_tax_id>  (233) 
9606

>  <bao_label>  (233) 
single protein format

>  <published_units>  (233) 
nM

>  <pchembl_value>  (233) 
6.95

>  <published_type>  (233) 
IC50

>  <activity_comment>  (233) 
None

$$$$

     RDKit          

 36 40  0  0  0  0  0  0  0  0999 V2000
    0.0000    0.0000    0.0000 C   0  0  0  0  0  0  0  0  0  0  0  0
    0.0000    0.0000    0.0000 C   0  0  0  0  0  0  0  0  0  0  0  0
    0.0000    0.0000    0.0000 C   0  0  0  0  0  0  0  0  0  0  0  0
    0.0000    0.0000    0.0000 C   0  0  0  0  0  0  0  0  0  0  0  0
    0.0000    0.0000    0.0000 O   0  0  0  0  0  0  0  0  0  0  0  0
    0.0000    0.0000    0.0000 C   0  0  0  0  0  0  0  0  0  0  0  0
    0.0000    0.0000    0.0000 C   0  0  0  0  0  0  0  0  0  0  0  0
    0.0000    0.0000    0.0000 C   0  0  0  0  0  0  0  0  0  0  0  0
    0.0000    0.0000    0.0000 C   0  0  0  0  0  0  0  0  0  0  0  0
    0.0000    0.0000    0.0000 C   0  0  0  0  0  0  0  0  0  0  0  0
    0.0000    0.0000    0.0000 C   0  0  0  0  0  0  0  0  0  0  0  0
    0.0000    0.0000    0.0000 N   0  0  0  0  0  0  0  0  0  0  0  0
    0.0000    0.0000    0.0000 C   0  0  0  0  0  0  0  0  0  0  0  0
    0.0000    0.0000    0.0000 O   0  0  0  0  0  0  0  0  0  0  0  0
    0.0000    0.0000    0.0000 N   0  0  0  0  0  0  0  0  0  0  0  0
    0.0000    0.0000    0.0000 C   0  0  0  0  0  0  0  0  0  0  0  0
    0.0000    0.0000    0.0000 C   0  0  0  0  0  0  0  0  0  0  0  0
    0.0000    0.0000    0.0000 C   0  0  0  0  0  0  0  0  0  0  0  0
    0.0000    0.0000    0.0000 C   0  0  0  0  0  0  0  0  0  0  0  0
    0.0000    0.0000    0.0000 C   0  0  0  0  0  0  0  0  0  0  0  0
    0.0000    0.0000    0.0000 C   0  0  0  0  0  0  0  0  0  0  0  0
    0.0000    0.0000    0.0000 C   0  0  0  0  0  0  0  0  0  0  0  0
    0.0000    0.0000    0.0000 C   0  0  0  0  0  0  0  0  0  0  0  0
    0.0000    0.0000    0.0000 C   0  0  0  0  0  0  0  0  0  0  0  0
    0.0000    0.0000    0.0000 C   0  0  0  0  0  0  0  0  0  0  0  0
    0.0000    0.0000    0.0000 O   0  0  0  0  0  0  0  0  0  0  0  0
    0.0000    0.0000    0.0000 O   0  0  0  0  0  0  0  0  0  0  0  0
    0.0000    0.0000    0.0000 C   0  0  0  0  0  0  0  0  0  0  0  0
    0.0000    0.0000    0.0000 O   0  0  0  0  0  0  0  0  0  0  0  0
    0.0000    0.0000    0.0000 C   0  0  0  0  0  0  0  0  0  0  0  0
    0.0000    0.0000    0.0000 C   0  0  0  0  0  0  0  0  0  0  0  0
    0.0000    0.0000    0.0000 C   0  0  0  0  0  0  0  0  0  0  0  0
    0.0000    0.0000    0.0000 C   0  0  0  0  0  0  0  0  0  0  0  0
    0.0000    0.0000    0.0000 C   0  0  0  0  0  0  0  0  0  0  0  0
    0.0000    0.0000    0.0000 C   0  0  0  0  0  0  0  0  0  0  0  0
    0.0000    0.0000    0.0000 C   0  0  0  0  0  0  0  0  0  0  0  0
  1  2  1  0
  2  3  2  0
  3  4  1  0
  4  5  1  0
  4  6  2  0
  6  7  1  0
  7  8  1  0
  7  9  2  0
  9 10  1  0
 10 11  1  0
 11 12  1  0
 11 13  1  0
 13 14  2  0
 13 15  1  0
 15 16  1  0
 16 17  1  0
 17 18  2  0
 18 19  1  0
 19 20  2  0
 20 21  1  0
 21 22  2  0
 22 23  1  0
 23 24  1  0
 24 25  1  0
 25 26  2  0
 25 27  1  0
 19 28  1  0
 28 29  1  0
 29 30  1  0
 30 31  2  0
 31 32  1  0
 32 33  2  0
 33 34  1  0
 34 35  2  0
 35 36  1  0
  9  2  1  0
 24 15  1  0
 22 17  1  0
 36 28  2  0
 35 30  1  0
M  END
>  <pIC50>  (234) 
5.61

>  <ChEMBL_ID>  (234) 
CHEMBL46160

>  <document_journal>  (234) 
Bioorg. Med. Chem. Lett.

>  <bao_endpoint>  (234) 
BAO_0000190

>  <potential_duplicate>  (234) 
False

>  <uo_units>  (234) 
UO_0000065

>  <canonical_smiles>  (234) 
Cc1cc(O)cc(C)c1CC(N)C(=O)N2Cc3cc(ccc3C[C@H]2C(=O)O)c4oc5ccccc5c4

>  <parent_molecule_chembl_id>  (234) 
CHEMBL46160

>  <assay_type>  (234) 
B

>  <src_id>  (234) 
1

>  <ligand_efficiency>  (234) 
{u'le': u'0.21', u'bei': u'11.58', u'sei': u'4.8', u'lle': u'3.31'}

>  <standard_flag>  (234) 
True

>  <molecule_chembl_id>  (234) 
CHEMBL46160

>  <target_organism>  (234) 
Homo sapiens

>  <standard_units>  (234) 
nM

>  <record_id>  (234) 
76664

>  <document_chembl_id>  (234) 
CHEMBL1132761

>  <bao_format>  (234) 
BAO_0000357

>  <data_validity_description>  (234) 
None

>  <activity_id>  (234) 
1054296

>  <standard_type>  (234) 
IC50

>  <target_chembl_id>  (234) 
CHEMBL233

>  <data_validity_comment>  (234) 
None

>  <published_value>  (234) 
2440

>  <document_year>  (234) 
2000

>  <target_pref_name>  (234) 
Mu opioid receptor

>  <assay_chembl_id>  (234) 
CHEMBL757307

>  <standard_relation>  (234) 
=

>  <assay_description>  (234) 
Compound was evaluated for binding affinity towards Opioid receptor mu 1 by displacing 125 I-FK-33824

>  <published_relation>  (234) 
=

>  <standard_value>  (234) 
2440

>  <qudt_units>  (234) 
http://www.openphacts.org/units/Nanomolar

>  <target_tax_id>  (234) 
9606

>  <bao_label>  (234) 
single protein format

>  <published_units>  (234) 
nM

>  <pchembl_value>  (234) 
5.61

>  <published_type>  (234) 
IC50

>  <activity_comment>  (234) 
None

$$$$

     RDKit          

 31 33  0  0  0  0  0  0  0  0999 V2000
    0.0000    0.0000    0.0000 C   0  0  0  0  0  0  0  0  0  0  0  0
    0.0000    0.0000    0.0000 O   0  0  0  0  0  0  0  0  0  0  0  0
    0.0000    0.0000    0.0000 C   0  0  0  0  0  0  0  0  0  0  0  0
    0.0000    0.0000    0.0000 C   0  0  0  0  0  0  0  0  0  0  0  0
    0.0000    0.0000    0.0000 Br  0  0  0  0  0  0  0  0  0  0  0  0
    0.0000    0.0000    0.0000 C   0  0  0  0  0  0  0  0  0  0  0  0
    0.0000    0.0000    0.0000 C   0  0  0  0  0  0  0  0  0  0  0  0
    0.0000    0.0000    0.0000 C   0  0  0  0  0  0  0  0  0  0  0  0
    0.0000    0.0000    0.0000 C   0  0  0  0  0  0  0  0  0  0  0  0
    0.0000    0.0000    0.0000 N   0  0  0  0  0  0  0  0  0  0  0  0
    0.0000    0.0000    0.0000 C   0  0  0  0  0  0  0  0  0  0  0  0
    0.0000    0.0000    0.0000 C   0  0  0  0  0  0  0  0  0  0  0  0
    0.0000    0.0000    0.0000 C   0  0  0  0  0  0  0  0  0  0  0  0
    0.0000    0.0000    0.0000 Br  0  0  0  0  0  0  0  0  0  0  0  0
    0.0000    0.0000    0.0000 C   0  0  0  0  0  0  0  0  0  0  0  0
    0.0000    0.0000    0.0000 O   0  0  0  0  0  0  0  0  0  0  0  0
    0.0000    0.0000    0.0000 C   0  0  0  0  0  0  0  0  0  0  0  0
    0.0000    0.0000    0.0000 N   0  0  0  0  0  0  0  0  0  0  0  0
    0.0000    0.0000    0.0000 C   0  0  0  0  0  0  0  0  0  0  0  0
    0.0000    0.0000    0.0000 C   0  0  0  0  0  0  0  0  0  0  0  0
    0.0000    0.0000    0.0000 C   0  0  0  0  0  0  0  0  0  0  0  0
    0.0000    0.0000    0.0000 C   0  0  0  0  0  0  0  0  0  0  0  0
    0.0000    0.0000    0.0000 C   0  0  0  0  0  0  0  0  0  0  0  0
    0.0000    0.0000    0.0000 C   0  0  0  0  0  0  0  0  0  0  0  0
    0.0000    0.0000    0.0000 O   0  0  0  0  0  0  0  0  0  0  0  0
    0.0000    0.0000    0.0000 C   0  0  0  0  0  0  0  0  0  0  0  0
    0.0000    0.0000    0.0000 C   0  0  0  0  0  0  0  0  0  0  0  0
    0.0000    0.0000    0.0000 C   0  0  0  0  0  0  0  0  0  0  0  0
    0.0000    0.0000    0.0000 C   0  0  0  0  0  0  0  0  0  0  0  0
    0.0000    0.0000    0.0000 O   0  0  0  0  0  0  0  0  0  0  0  0
    0.0000    0.0000    0.0000 O   0  0  0  0  0  0  0  0  0  0  0  0
  1  2  1  0
  2  3  1  0
  3  4  2  0
  4  5  1  0
  4  6  1  0
  6  7  2  0
  7  8  1  0
  8  9  1  0
  9 10  1  0
 10 11  1  0
 11 12  1  0
 12 13  2  0
 13 14  1  0
 10 15  1  0
 15 16  2  0
 15 17  1  0
 17 18  1  0
 17 19  1  0
 19 20  1  0
 20 21  2  0
 21 22  1  0
 21 23  1  0
 23 24  2  0
 24 25  1  0
 24 26  1  0
 26 27  2  0
 27 28  1  0
  9 29  1  0
 29 30  2  0
 29 31  1  0
 13  3  1  0
 12  7  1  0
 27 20  1  0
M  END
>  <pIC50>  (235) 
5.08

>  <ChEMBL_ID>  (235) 
CHEMBL2115430

>  <document_journal>  (235) 
Bioorg. Med. Chem. Lett.

>  <bao_endpoint>  (235) 
BAO_0000190

>  <potential_duplicate>  (235) 
False

>  <uo_units>  (235) 
UO_0000065

>  <canonical_smiles>  (235) 
COc1c(Br)cc2C[C@H](N(Cc2c1Br)C(=O)[C@H](N)Cc3c(C)cc(O)cc3C)C(=O)O

>  <parent_molecule_chembl_id>  (235) 
CHEMBL2115430

>  <assay_type>  (235) 
B

>  <src_id>  (235) 
1

>  <ligand_efficiency>  (235) 
{u'le': u'0.22', u'bei': u'9.14', u'sei': u'4.5', u'lle': u'3.41'}

>  <standard_flag>  (235) 
True

>  <molecule_chembl_id>  (235) 
CHEMBL2115430

>  <target_organism>  (235) 
Homo sapiens

>  <standard_units>  (235) 
nM

>  <record_id>  (235) 
76676

>  <document_chembl_id>  (235) 
CHEMBL1132761

>  <bao_format>  (235) 
BAO_0000357

>  <data_validity_description>  (235) 
None

>  <activity_id>  (235) 
1059322

>  <standard_type>  (235) 
IC50

>  <target_chembl_id>  (235) 
CHEMBL233

>  <data_validity_comment>  (235) 
None

>  <published_value>  (235) 
8240

>  <document_year>  (235) 
2000

>  <target_pref_name>  (235) 
Mu opioid receptor

>  <assay_chembl_id>  (235) 
CHEMBL757307

>  <standard_relation>  (235) 
=

>  <assay_description>  (235) 
Compound was evaluated for binding affinity towards Opioid receptor mu 1 by displacing 125 I-FK-33824

>  <published_relation>  (235) 
=

>  <standard_value>  (235) 
8240

>  <qudt_units>  (235) 
http://www.openphacts.org/units/Nanomolar

>  <target_tax_id>  (235) 
9606

>  <bao_label>  (235) 
single protein format

>  <published_units>  (235) 
nM

>  <pchembl_value>  (235) 
5.08

>  <published_type>  (235) 
IC50

>  <activity_comment>  (235) 
None

$$$$

     RDKit          

 25 27  0  0  0  0  0  0  0  0999 V2000
    0.0000    0.0000    0.0000 C   0  0  0  0  0  0  0  0  0  0  0  0
    0.0000    0.0000    0.0000 C   0  0  0  0  0  0  0  0  0  0  0  0
    0.0000    0.0000    0.0000 C   0  0  0  0  0  0  0  0  0  0  0  0
    0.0000    0.0000    0.0000 C   0  0  0  0  0  0  0  0  0  0  0  0
    0.0000    0.0000    0.0000 C   0  0  0  0  0  0  0  0  0  0  0  0
    0.0000    0.0000    0.0000 C   0  0  0  0  0  0  0  0  0  0  0  0
    0.0000    0.0000    0.0000 C   0  0  0  0  0  0  0  0  0  0  0  0
    0.0000    0.0000    0.0000 C   0  0  0  0  0  0  0  0  0  0  0  0
    0.0000    0.0000    0.0000 C   0  0  0  0  0  0  0  0  0  0  0  0
    0.0000    0.0000    0.0000 C   0  0  0  0  0  0  0  0  0  0  0  0
    0.0000    0.0000    0.0000 N   0  0  0  0  0  0  0  0  0  0  0  0
    0.0000    0.0000    0.0000 C   0  0  0  0  0  0  0  0  0  0  0  0
    0.0000    0.0000    0.0000 O   0  0  0  0  0  0  0  0  0  0  0  0
    0.0000    0.0000    0.0000 C   0  0  0  0  0  0  0  0  0  0  0  0
    0.0000    0.0000    0.0000 N   0  0  0  0  0  0  0  0  0  0  0  0
    0.0000    0.0000    0.0000 C   0  0  0  0  0  0  0  0  0  0  0  0
    0.0000    0.0000    0.0000 C   0  0  0  0  0  0  0  0  0  0  0  0
    0.0000    0.0000    0.0000 C   0  0  0  0  0  0  0  0  0  0  0  0
    0.0000    0.0000    0.0000 C   0  0  0  0  0  0  0  0  0  0  0  0
    0.0000    0.0000    0.0000 C   0  0  0  0  0  0  0  0  0  0  0  0
    0.0000    0.0000    0.0000 C   0  0  0  0  0  0  0  0  0  0  0  0
    0.0000    0.0000    0.0000 O   0  0  0  0  0  0  0  0  0  0  0  0
    0.0000    0.0000    0.0000 C   0  0  0  0  0  0  0  0  0  0  0  0
    0.0000    0.0000    0.0000 C   0  0  0  0  0  0  0  0  0  0  0  0
    0.0000    0.0000    0.0000 C   0  0  0  0  0  0  0  0  0  0  0  0
  1  2  1  0
  2  3  1  0
  3  4  1  0
  4  5  2  0
  5  6  1  0
  6  7  2  0
  7  8  1  0
  8  9  2  0
  9 10  1  0
 10 11  1  0
 11 12  1  0
 12 13  2  0
 12 14  1  0
 14 15  1  0
 14 16  1  0
 16 17  1  0
 17 18  2  0
 18 19  1  0
 18 20  1  0
 20 21  2  0
 21 22  1  0
 21 23  1  0
 23 24  2  0
 24 25  1  0
 11  2  1  0
  9  4  1  0
 24 17  1  0
M  END
>  <pIC50>  (236) 
8.52

>  <ChEMBL_ID>  (236) 
CHEMBL77196

>  <document_journal>  (236) 
J. Med. Chem.

>  <bao_endpoint>  (236) 
BAO_0000190

>  <potential_duplicate>  (236) 
False

>  <uo_units>  (236) 
UO_0000065

>  <canonical_smiles>  (236) 
C[C@@H]1Cc2ccccc2CN1C(=O)[C@@H](N)Cc3c(C)cc(O)cc3C

>  <parent_molecule_chembl_id>  (236) 
CHEMBL77196

>  <assay_type>  (236) 
B

>  <src_id>  (236) 
1

>  <ligand_efficiency>  (236) 
{u'le': u'0.47', u'bei': u'25.18', u'sei': u'12.8', u'lle': u'5.1'}

>  <standard_flag>  (236) 
True

>  <molecule_chembl_id>  (236) 
CHEMBL77196

>  <target_organism>  (236) 
Homo sapiens

>  <standard_units>  (236) 
nM

>  <record_id>  (236) 
140309

>  <document_chembl_id>  (236) 
CHEMBL1134689

>  <bao_format>  (236) 
BAO_0000357

>  <data_validity_description>  (236) 
None

>  <activity_id>  (236) 
1059580

>  <standard_type>  (236) 
IC50

>  <target_chembl_id>  (236) 
CHEMBL233

>  <data_validity_comment>  (236) 
None

>  <published_value>  (236) 
3

>  <document_year>  (236) 
2001

>  <target_pref_name>  (236) 
Mu opioid receptor

>  <assay_chembl_id>  (236) 
CHEMBL757823

>  <standard_relation>  (236) 
=

>  <assay_description>  (236) 
Binding affinity at cloned human mu-opioid receptor

>  <published_relation>  (236) 
=

>  <standard_value>  (236) 
3

>  <qudt_units>  (236) 
http://www.openphacts.org/units/Nanomolar

>  <target_tax_id>  (236) 
9606

>  <bao_label>  (236) 
single protein format

>  <published_units>  (236) 
nM

>  <pchembl_value>  (236) 
8.52

>  <published_type>  (236) 
IC50

>  <activity_comment>  (236) 
None

$$$$

     RDKit          

 33 36  0  0  0  0  0  0  0  0999 V2000
    0.0000    0.0000    0.0000 C   0  0  0  0  0  0  0  0  0  0  0  0
    0.0000    0.0000    0.0000 C   0  0  0  0  0  0  0  0  0  0  0  0
    0.0000    0.0000    0.0000 C   0  0  0  0  0  0  0  0  0  0  0  0
    0.0000    0.0000    0.0000 C   0  0  0  0  0  0  0  0  0  0  0  0
    0.0000    0.0000    0.0000 O   0  0  0  0  0  0  0  0  0  0  0  0
    0.0000    0.0000    0.0000 C   0  0  0  0  0  0  0  0  0  0  0  0
    0.0000    0.0000    0.0000 C   0  0  0  0  0  0  0  0  0  0  0  0
    0.0000    0.0000    0.0000 C   0  0  0  0  0  0  0  0  0  0  0  0
    0.0000    0.0000    0.0000 C   0  0  0  0  0  0  0  0  0  0  0  0
    0.0000    0.0000    0.0000 C   0  0  0  0  0  0  0  0  0  0  0  0
    0.0000    0.0000    0.0000 C   0  0  0  0  0  0  0  0  0  0  0  0
    0.0000    0.0000    0.0000 N   0  0  0  0  0  0  0  0  0  0  0  0
    0.0000    0.0000    0.0000 C   0  0  0  0  0  0  0  0  0  0  0  0
    0.0000    0.0000    0.0000 O   0  0  0  0  0  0  0  0  0  0  0  0
    0.0000    0.0000    0.0000 N   0  0  0  0  0  0  0  0  0  0  0  0
    0.0000    0.0000    0.0000 C   0  0  0  0  0  0  0  0  0  0  0  0
    0.0000    0.0000    0.0000 C   0  0  0  0  0  0  0  0  0  0  0  0
    0.0000    0.0000    0.0000 C   0  0  0  0  0  0  0  0  0  0  0  0
    0.0000    0.0000    0.0000 C   0  0  0  0  0  0  0  0  0  0  0  0
    0.0000    0.0000    0.0000 C   0  0  0  0  0  0  0  0  0  0  0  0
    0.0000    0.0000    0.0000 C   0  0  0  0  0  0  0  0  0  0  0  0
    0.0000    0.0000    0.0000 C   0  0  0  0  0  0  0  0  0  0  0  0
    0.0000    0.0000    0.0000 C   0  0  0  0  0  0  0  0  0  0  0  0
    0.0000    0.0000    0.0000 C   0  0  0  0  0  0  0  0  0  0  0  0
    0.0000    0.0000    0.0000 C   0  0  0  0  0  0  0  0  0  0  0  0
    0.0000    0.0000    0.0000 O   0  0  0  0  0  0  0  0  0  0  0  0
    0.0000    0.0000    0.0000 O   0  0  0  0  0  0  0  0  0  0  0  0
    0.0000    0.0000    0.0000 C   0  0  0  0  0  0  0  0  0  0  0  0
    0.0000    0.0000    0.0000 C   0  0  0  0  0  0  0  0  0  0  0  0
    0.0000    0.0000    0.0000 C   0  0  0  0  0  0  0  0  0  0  0  0
    0.0000    0.0000    0.0000 C   0  0  0  0  0  0  0  0  0  0  0  0
    0.0000    0.0000    0.0000 C   0  0  0  0  0  0  0  0  0  0  0  0
    0.0000    0.0000    0.0000 C   0  0  0  0  0  0  0  0  0  0  0  0
  1  2  1  0
  2  3  2  0
  3  4  1  0
  4  5  1  0
  4  6  2  0
  6  7  1  0
  7  8  1  0
  7  9  2  0
  9 10  1  0
 10 11  1  0
 11 12  1  0
 11 13  1  0
 13 14  2  0
 13 15  1  0
 15 16  1  0
 16 17  1  0
 17 18  2  0
 18 19  1  0
 19 20  2  0
 20 21  1  0
 21 22  2  0
 22 23  1  0
 23 24  1  0
 24 25  1  0
 25 26  2  0
 25 27  1  0
 19 28  1  0
 28 29  2  0
 29 30  1  0
 30 31  2  0
 31 32  1  0
 32 33  2  0
  9  2  1  0
 24 15  1  0
 22 17  1  0
 33 28  1  0
M  END
>  <pIC50>  (237) 
5.71

>  <ChEMBL_ID>  (237) 
CHEMBL2115429

>  <document_journal>  (237) 
Bioorg. Med. Chem. Lett.

>  <bao_endpoint>  (237) 
BAO_0000190

>  <potential_duplicate>  (237) 
False

>  <uo_units>  (237) 
UO_0000065

>  <canonical_smiles>  (237) 
Cc1cc(O)cc(C)c1C[C@@H](N)C(=O)N2Cc3cc(ccc3C[C@H]2C(=O)O)c4ccccc4

>  <parent_molecule_chembl_id>  (237) 
CHEMBL2115429

>  <assay_type>  (237) 
B

>  <src_id>  (237) 
1

>  <ligand_efficiency>  (237) 
{u'le': u'0.24', u'bei': u'12.85', u'sei': u'5.5', u'lle': u'4.01'}

>  <standard_flag>  (237) 
True

>  <molecule_chembl_id>  (237) 
CHEMBL2115429

>  <target_organism>  (237) 
Homo sapiens

>  <standard_units>  (237) 
nM

>  <record_id>  (237) 
76671

>  <document_chembl_id>  (237) 
CHEMBL1132761

>  <bao_format>  (237) 
BAO_0000357

>  <data_validity_description>  (237) 
None

>  <activity_id>  (237) 
1060620

>  <standard_type>  (237) 
IC50

>  <target_chembl_id>  (237) 
CHEMBL233

>  <data_validity_comment>  (237) 
None

>  <published_value>  (237) 
1940

>  <document_year>  (237) 
2000

>  <target_pref_name>  (237) 
Mu opioid receptor

>  <assay_chembl_id>  (237) 
CHEMBL757307

>  <standard_relation>  (237) 
=

>  <assay_description>  (237) 
Compound was evaluated for binding affinity towards Opioid receptor mu 1 by displacing 125 I-FK-33824

>  <published_relation>  (237) 
=

>  <standard_value>  (237) 
1940

>  <qudt_units>  (237) 
http://www.openphacts.org/units/Nanomolar

>  <target_tax_id>  (237) 
9606

>  <bao_label>  (237) 
single protein format

>  <published_units>  (237) 
nM

>  <pchembl_value>  (237) 
5.71

>  <published_type>  (237) 
IC50

>  <activity_comment>  (237) 
None

$$$$

     RDKit          

 33 36  0  0  0  0  0  0  0  0999 V2000
    0.0000    0.0000    0.0000 C   0  0  0  0  0  0  0  0  0  0  0  0
    0.0000    0.0000    0.0000 C   0  0  0  0  0  0  0  0  0  0  0  0
    0.0000    0.0000    0.0000 C   0  0  0  0  0  0  0  0  0  0  0  0
    0.0000    0.0000    0.0000 C   0  0  0  0  0  0  0  0  0  0  0  0
    0.0000    0.0000    0.0000 O   0  0  0  0  0  0  0  0  0  0  0  0
    0.0000    0.0000    0.0000 C   0  0  0  0  0  0  0  0  0  0  0  0
    0.0000    0.0000    0.0000 C   0  0  0  0  0  0  0  0  0  0  0  0
    0.0000    0.0000    0.0000 C   0  0  0  0  0  0  0  0  0  0  0  0
    0.0000    0.0000    0.0000 C   0  0  0  0  0  0  0  0  0  0  0  0
    0.0000    0.0000    0.0000 C   0  0  0  0  0  0  0  0  0  0  0  0
    0.0000    0.0000    0.0000 C   0  0  0  0  0  0  0  0  0  0  0  0
    0.0000    0.0000    0.0000 N   0  0  0  0  0  0  0  0  0  0  0  0
    0.0000    0.0000    0.0000 C   0  0  0  0  0  0  0  0  0  0  0  0
    0.0000    0.0000    0.0000 O   0  0  0  0  0  0  0  0  0  0  0  0
    0.0000    0.0000    0.0000 N   0  0  0  0  0  0  0  0  0  0  0  0
    0.0000    0.0000    0.0000 C   0  0  0  0  0  0  0  0  0  0  0  0
    0.0000    0.0000    0.0000 C   0  0  0  0  0  0  0  0  0  0  0  0
    0.0000    0.0000    0.0000 C   0  0  0  0  0  0  0  0  0  0  0  0
    0.0000    0.0000    0.0000 C   0  0  0  0  0  0  0  0  0  0  0  0
    0.0000    0.0000    0.0000 C   0  0  0  0  0  0  0  0  0  0  0  0
    0.0000    0.0000    0.0000 C   0  0  0  0  0  0  0  0  0  0  0  0
    0.0000    0.0000    0.0000 C   0  0  0  0  0  0  0  0  0  0  0  0
    0.0000    0.0000    0.0000 C   0  0  0  0  0  0  0  0  0  0  0  0
    0.0000    0.0000    0.0000 C   0  0  0  0  0  0  0  0  0  0  0  0
    0.0000    0.0000    0.0000 C   0  0  0  0  0  0  0  0  0  0  0  0
    0.0000    0.0000    0.0000 O   0  0  0  0  0  0  0  0  0  0  0  0
    0.0000    0.0000    0.0000 C   0  0  0  0  0  0  0  0  0  0  0  0
    0.0000    0.0000    0.0000 C   0  0  0  0  0  0  0  0  0  0  0  0
    0.0000    0.0000    0.0000 C   0  0  0  0  0  0  0  0  0  0  0  0
    0.0000    0.0000    0.0000 C   0  0  0  0  0  0  0  0  0  0  0  0
    0.0000    0.0000    0.0000 C   0  0  0  0  0  0  0  0  0  0  0  0
    0.0000    0.0000    0.0000 C   0  0  0  0  0  0  0  0  0  0  0  0
    0.0000    0.0000    0.0000 C   0  0  0  0  0  0  0  0  0  0  0  0
  1  2  1  0
  2  3  2  0
  3  4  1  0
  4  5  1  0
  4  6  2  0
  6  7  1  0
  7  8  1  0
  7  9  2  0
  9 10  1  0
 10 11  1  0
 11 12  1  0
 11 13  1  0
 13 14  2  0
 13 15  1  0
 15 16  1  0
 16 17  1  0
 17 18  2  0
 18 19  1  0
 19 20  2  0
 20 21  1  0
 21 22  2  0
 22 23  1  0
 23 24  1  0
 24 25  1  0
 25 26  1  0
 26 27  1  0
 27 28  1  0
 28 29  2  0
 29 30  1  0
 30 31  2  0
 31 32  1  0
 32 33  2  0
  9  2  1  0
 24 15  1  0
 22 17  1  0
 33 28  1  0
M  END
>  <pIC50>  (238) 
7.9

>  <ChEMBL_ID>  (238) 
CHEMBL76089

>  <document_journal>  (238) 
J. Med. Chem.

>  <bao_endpoint>  (238) 
BAO_0000190

>  <potential_duplicate>  (238) 
False

>  <uo_units>  (238) 
UO_0000065

>  <canonical_smiles>  (238) 
Cc1cc(O)cc(C)c1C[C@H](N)C(=O)N2Cc3ccccc3C[C@H]2COCc4ccccc4

>  <parent_molecule_chembl_id>  (238) 
CHEMBL76089

>  <assay_type>  (238) 
B

>  <src_id>  (238) 
1

>  <ligand_efficiency>  (238) 
{u'le': u'0.33', u'bei': u'17.78', u'sei': u'10.43', u'lle': u'3.37'}

>  <standard_flag>  (238) 
True

>  <molecule_chembl_id>  (238) 
CHEMBL76089

>  <target_organism>  (238) 
Homo sapiens

>  <standard_units>  (238) 
nM

>  <record_id>  (238) 
140310

>  <document_chembl_id>  (238) 
CHEMBL1134689

>  <bao_format>  (238) 
BAO_0000357

>  <data_validity_description>  (238) 
None

>  <activity_id>  (238) 
1060794

>  <standard_type>  (238) 
IC50

>  <target_chembl_id>  (238) 
CHEMBL233

>  <data_validity_comment>  (238) 
None

>  <published_value>  (238) 
12.5

>  <document_year>  (238) 
2001

>  <target_pref_name>  (238) 
Mu opioid receptor

>  <assay_chembl_id>  (238) 
CHEMBL757823

>  <standard_relation>  (238) 
=

>  <assay_description>  (238) 
Binding affinity at cloned human mu-opioid receptor

>  <published_relation>  (238) 
=

>  <standard_value>  (238) 
12.5

>  <qudt_units>  (238) 
http://www.openphacts.org/units/Nanomolar

>  <target_tax_id>  (238) 
9606

>  <bao_label>  (238) 
single protein format

>  <published_units>  (238) 
nM

>  <pchembl_value>  (238) 
7.9

>  <published_type>  (238) 
IC50

>  <activity_comment>  (238) 
None

$$$$

     RDKit          

 33 36  0  0  0  0  0  0  0  0999 V2000
    0.0000    0.0000    0.0000 C   0  0  0  0  0  0  0  0  0  0  0  0
    0.0000    0.0000    0.0000 C   0  0  0  0  0  0  0  0  0  0  0  0
    0.0000    0.0000    0.0000 C   0  0  0  0  0  0  0  0  0  0  0  0
    0.0000    0.0000    0.0000 C   0  0  0  0  0  0  0  0  0  0  0  0
    0.0000    0.0000    0.0000 O   0  0  0  0  0  0  0  0  0  0  0  0
    0.0000    0.0000    0.0000 C   0  0  0  0  0  0  0  0  0  0  0  0
    0.0000    0.0000    0.0000 C   0  0  0  0  0  0  0  0  0  0  0  0
    0.0000    0.0000    0.0000 C   0  0  0  0  0  0  0  0  0  0  0  0
    0.0000    0.0000    0.0000 C   0  0  0  0  0  0  0  0  0  0  0  0
    0.0000    0.0000    0.0000 C   0  0  0  0  0  0  0  0  0  0  0  0
    0.0000    0.0000    0.0000 C   0  0  0  0  0  0  0  0  0  0  0  0
    0.0000    0.0000    0.0000 N   0  0  0  0  0  0  0  0  0  0  0  0
    0.0000    0.0000    0.0000 C   0  0  0  0  0  0  0  0  0  0  0  0
    0.0000    0.0000    0.0000 O   0  0  0  0  0  0  0  0  0  0  0  0
    0.0000    0.0000    0.0000 N   0  0  0  0  0  0  0  0  0  0  0  0
    0.0000    0.0000    0.0000 C   0  0  0  0  0  0  0  0  0  0  0  0
    0.0000    0.0000    0.0000 C   0  0  0  0  0  0  0  0  0  0  0  0
    0.0000    0.0000    0.0000 C   0  0  0  0  0  0  0  0  0  0  0  0
    0.0000    0.0000    0.0000 C   0  0  0  0  0  0  0  0  0  0  0  0
    0.0000    0.0000    0.0000 C   0  0  0  0  0  0  0  0  0  0  0  0
    0.0000    0.0000    0.0000 C   0  0  0  0  0  0  0  0  0  0  0  0
    0.0000    0.0000    0.0000 C   0  0  0  0  0  0  0  0  0  0  0  0
    0.0000    0.0000    0.0000 C   0  0  0  0  0  0  0  0  0  0  0  0
    0.0000    0.0000    0.0000 C   0  0  0  0  0  0  0  0  0  0  0  0
    0.0000    0.0000    0.0000 C   0  0  0  0  0  0  0  0  0  0  0  0
    0.0000    0.0000    0.0000 N   0  0  0  0  0  0  0  0  0  0  0  0
    0.0000    0.0000    0.0000 C   0  0  0  0  0  0  0  0  0  0  0  0
    0.0000    0.0000    0.0000 C   0  0  0  0  0  0  0  0  0  0  0  0
    0.0000    0.0000    0.0000 C   0  0  0  0  0  0  0  0  0  0  0  0
    0.0000    0.0000    0.0000 C   0  0  0  0  0  0  0  0  0  0  0  0
    0.0000    0.0000    0.0000 C   0  0  0  0  0  0  0  0  0  0  0  0
    0.0000    0.0000    0.0000 C   0  0  0  0  0  0  0  0  0  0  0  0
    0.0000    0.0000    0.0000 C   0  0  0  0  0  0  0  0  0  0  0  0
  1  2  1  0
  2  3  2  0
  3  4  1  0
  4  5  1  0
  4  6  2  0
  6  7  1  0
  7  8  1  0
  7  9  2  0
  9 10  1  0
 10 11  1  0
 11 12  1  0
 11 13  1  0
 13 14  2  0
 13 15  1  0
 15 16  1  0
 16 17  1  0
 17 18  2  0
 18 19  1  0
 19 20  2  0
 20 21  1  0
 21 22  2  0
 22 23  1  0
 23 24  1  0
 24 25  1  0
 25 26  1  0
 26 27  1  0
 27 28  1  0
 28 29  2  0
 29 30  1  0
 30 31  2  0
 31 32  1  0
 32 33  2  0
  9  2  1  0
 24 15  1  0
 22 17  1  0
 33 28  1  0
M  END
>  <pIC50>  (239) 
9.19

>  <ChEMBL_ID>  (239) 
CHEMBL77001

>  <document_journal>  (239) 
J. Med. Chem.

>  <bao_endpoint>  (239) 
BAO_0000190

>  <potential_duplicate>  (239) 
False

>  <uo_units>  (239) 
UO_0000065

>  <canonical_smiles>  (239) 
Cc1cc(O)cc(C)c1C[C@H](N)C(=O)N2Cc3ccccc3C[C@H]2CNCc4ccccc4

>  <parent_molecule_chembl_id>  (239) 
CHEMBL77001

>  <assay_type>  (239) 
B

>  <src_id>  (239) 
1

>  <ligand_efficiency>  (239) 
{u'le': u'0.38', u'bei': u'20.71', u'sei': u'11.69', u'lle': u'4.93'}

>  <standard_flag>  (239) 
True

>  <molecule_chembl_id>  (239) 
CHEMBL77001

>  <target_organism>  (239) 
Homo sapiens

>  <standard_units>  (239) 
nM

>  <record_id>  (239) 
140324

>  <document_chembl_id>  (239) 
CHEMBL1134689

>  <bao_format>  (239) 
BAO_0000357

>  <data_validity_description>  (239) 
None

>  <activity_id>  (239) 
1060802

>  <standard_type>  (239) 
IC50

>  <target_chembl_id>  (239) 
CHEMBL233

>  <data_validity_comment>  (239) 
None

>  <published_value>  (239) 
0.65

>  <document_year>  (239) 
2001

>  <target_pref_name>  (239) 
Mu opioid receptor

>  <assay_chembl_id>  (239) 
CHEMBL757823

>  <standard_relation>  (239) 
=

>  <assay_description>  (239) 
Binding affinity at cloned human mu-opioid receptor

>  <published_relation>  (239) 
=

>  <standard_value>  (239) 
0.65

>  <qudt_units>  (239) 
http://www.openphacts.org/units/Nanomolar

>  <target_tax_id>  (239) 
9606

>  <bao_label>  (239) 
single protein format

>  <published_units>  (239) 
nM

>  <pchembl_value>  (239) 
9.19

>  <published_type>  (239) 
IC50

>  <activity_comment>  (239) 
None

$$$$

     RDKit          

 27 29  0  0  0  0  0  0  0  0999 V2000
    0.0000    0.0000    0.0000 C   0  0  0  0  0  0  0  0  0  0  0  0
    0.0000    0.0000    0.0000 O   0  0  0  0  0  0  0  0  0  0  0  0
    0.0000    0.0000    0.0000 C   0  0  0  0  0  0  0  0  0  0  0  0
    0.0000    0.0000    0.0000 C   0  0  0  0  0  0  0  0  0  0  0  0
    0.0000    0.0000    0.0000 C   0  0  0  0  0  0  0  0  0  0  0  0
    0.0000    0.0000    0.0000 C   0  0  0  0  0  0  0  0  0  0  0  0
    0.0000    0.0000    0.0000 C   0  0  0  0  0  0  0  0  0  0  0  0
    0.0000    0.0000    0.0000 C   0  0  0  0  0  0  0  0  0  0  0  0
    0.0000    0.0000    0.0000 C   0  0  0  0  0  0  0  0  0  0  0  0
    0.0000    0.0000    0.0000 C   0  0  0  0  0  0  0  0  0  0  0  0
    0.0000    0.0000    0.0000 C   0  0  0  0  0  0  0  0  0  0  0  0
    0.0000    0.0000    0.0000 C   0  0  0  0  0  0  0  0  0  0  0  0
    0.0000    0.0000    0.0000 N   0  0  0  0  0  0  0  0  0  0  0  0
    0.0000    0.0000    0.0000 C   0  0  0  0  0  0  0  0  0  0  0  0
    0.0000    0.0000    0.0000 O   0  0  0  0  0  0  0  0  0  0  0  0
    0.0000    0.0000    0.0000 C   0  0  0  0  0  0  0  0  0  0  0  0
    0.0000    0.0000    0.0000 N   0  0  0  0  0  0  0  0  0  0  0  0
    0.0000    0.0000    0.0000 C   0  0  0  0  0  0  0  0  0  0  0  0
    0.0000    0.0000    0.0000 C   0  0  0  0  0  0  0  0  0  0  0  0
    0.0000    0.0000    0.0000 C   0  0  0  0  0  0  0  0  0  0  0  0
    0.0000    0.0000    0.0000 C   0  0  0  0  0  0  0  0  0  0  0  0
    0.0000    0.0000    0.0000 C   0  0  0  0  0  0  0  0  0  0  0  0
    0.0000    0.0000    0.0000 C   0  0  0  0  0  0  0  0  0  0  0  0
    0.0000    0.0000    0.0000 O   0  0  0  0  0  0  0  0  0  0  0  0
    0.0000    0.0000    0.0000 C   0  0  0  0  0  0  0  0  0  0  0  0
    0.0000    0.0000    0.0000 C   0  0  0  0  0  0  0  0  0  0  0  0
    0.0000    0.0000    0.0000 C   0  0  0  0  0  0  0  0  0  0  0  0
  1  2  1  0
  2  3  1  0
  3  4  1  0
  4  5  1  0
  5  6  1  0
  6  7  2  0
  7  8  1  0
  8  9  2  0
  9 10  1  0
 10 11  2  0
 11 12  1  0
 12 13  1  0
 13 14  1  0
 14 15  2  0
 14 16  1  0
 16 17  1  0
 16 18  1  0
 18 19  1  0
 19 20  2  0
 20 21  1  0
 20 22  1  0
 22 23  2  0
 23 24  1  0
 23 25  1  0
 25 26  2  0
 26 27  1  0
 13  4  1  0
 11  6  1  0
 26 19  1  0
M  END
>  <pIC50>  (240) 
6.34

>  <ChEMBL_ID>  (240) 
CHEMBL76493

>  <document_journal>  (240) 
J. Med. Chem.

>  <bao_endpoint>  (240) 
BAO_0000190

>  <potential_duplicate>  (240) 
False

>  <uo_units>  (240) 
UO_0000065

>  <canonical_smiles>  (240) 
COC[C@@H]1Cc2ccccc2CN1C(=O)[C@@H](N)Cc3c(C)cc(O)cc3C

>  <parent_molecule_chembl_id>  (240) 
CHEMBL76493

>  <assay_type>  (240) 
B

>  <src_id>  (240) 
1

>  <ligand_efficiency>  (240) 
{u'le': u'0.32', u'bei': u'17.2', u'sei': u'8.36', u'lle': u'3.4'}

>  <standard_flag>  (240) 
True

>  <molecule_chembl_id>  (240) 
CHEMBL76493

>  <target_organism>  (240) 
Homo sapiens

>  <standard_units>  (240) 
nM

>  <record_id>  (240) 
140306

>  <document_chembl_id>  (240) 
CHEMBL1134689

>  <bao_format>  (240) 
BAO_0000357

>  <data_validity_description>  (240) 
None

>  <activity_id>  (240) 
1062280

>  <standard_type>  (240) 
IC50

>  <target_chembl_id>  (240) 
CHEMBL233

>  <data_validity_comment>  (240) 
None

>  <published_value>  (240) 
458

>  <document_year>  (240) 
2001

>  <target_pref_name>  (240) 
Mu opioid receptor

>  <assay_chembl_id>  (240) 
CHEMBL757823

>  <standard_relation>  (240) 
=

>  <assay_description>  (240) 
Binding affinity at cloned human mu-opioid receptor

>  <published_relation>  (240) 
=

>  <standard_value>  (240) 
458

>  <qudt_units>  (240) 
http://www.openphacts.org/units/Nanomolar

>  <target_tax_id>  (240) 
9606

>  <bao_label>  (240) 
single protein format

>  <published_units>  (240) 
nM

>  <pchembl_value>  (240) 
6.34

>  <published_type>  (240) 
IC50

>  <activity_comment>  (240) 
None

$$$$

     RDKit          

 33 35  0  0  0  0  0  0  0  0999 V2000
    0.0000    0.0000    0.0000 C   0  0  0  0  0  0  0  0  0  0  0  0
    0.0000    0.0000    0.0000 C   0  0  0  0  0  0  0  0  0  0  0  0
    0.0000    0.0000    0.0000 C   0  0  0  0  0  0  0  0  0  0  0  0
    0.0000    0.0000    0.0000 C   0  0  0  0  0  0  0  0  0  0  0  0
    0.0000    0.0000    0.0000 O   0  0  0  0  0  0  0  0  0  0  0  0
    0.0000    0.0000    0.0000 C   0  0  0  0  0  0  0  0  0  0  0  0
    0.0000    0.0000    0.0000 C   0  0  0  0  0  0  0  0  0  0  0  0
    0.0000    0.0000    0.0000 C   0  0  0  0  0  0  0  0  0  0  0  0
    0.0000    0.0000    0.0000 C   0  0  0  0  0  0  0  0  0  0  0  0
    0.0000    0.0000    0.0000 C   0  0  0  0  0  0  0  0  0  0  0  0
    0.0000    0.0000    0.0000 C   0  0  0  0  0  0  0  0  0  0  0  0
    0.0000    0.0000    0.0000 N   0  0  0  0  0  0  0  0  0  0  0  0
    0.0000    0.0000    0.0000 C   0  0  0  0  0  0  0  0  0  0  0  0
    0.0000    0.0000    0.0000 O   0  0  0  0  0  0  0  0  0  0  0  0
    0.0000    0.0000    0.0000 N   0  0  0  0  0  0  0  0  0  0  0  0
    0.0000    0.0000    0.0000 C   0  0  0  0  0  0  0  0  0  0  0  0
    0.0000    0.0000    0.0000 C   0  0  0  0  0  0  0  0  0  0  0  0
    0.0000    0.0000    0.0000 C   0  0  0  0  0  0  0  0  0  0  0  0
    0.0000    0.0000    0.0000 C   0  0  0  0  0  0  0  0  0  0  0  0
    0.0000    0.0000    0.0000 C   0  0  0  0  0  0  0  0  0  0  0  0
    0.0000    0.0000    0.0000 C   0  0  0  0  0  0  0  0  0  0  0  0
    0.0000    0.0000    0.0000 C   0  0  0  0  0  0  0  0  0  0  0  0
    0.0000    0.0000    0.0000 C   0  0  0  0  0  0  0  0  0  0  0  0
    0.0000    0.0000    0.0000 C   0  0  0  0  0  0  0  0  0  0  0  0
    0.0000    0.0000    0.0000 C   0  0  0  0  0  0  0  0  0  0  0  0
    0.0000    0.0000    0.0000 N   0  0  0  0  0  0  0  0  0  0  0  0
    0.0000    0.0000    0.0000 C   0  0  0  0  0  0  0  0  0  0  0  0
    0.0000    0.0000    0.0000 O   0  0  0  0  0  0  0  0  0  0  0  0
    0.0000    0.0000    0.0000 N   0  0  0  0  0  0  0  0  0  0  0  0
    0.0000    0.0000    0.0000 C   0  0  0  0  0  0  0  0  0  0  0  0
    0.0000    0.0000    0.0000 C   0  0  0  0  0  0  0  0  0  0  0  0
    0.0000    0.0000    0.0000 C   0  0  0  0  0  0  0  0  0  0  0  0
    0.0000    0.0000    0.0000 C   0  0  0  0  0  0  0  0  0  0  0  0
  1  2  1  0
  2  3  2  0
  3  4  1  0
  4  5  1  0
  4  6  2  0
  6  7  1  0
  7  8  1  0
  7  9  2  0
  9 10  1  0
 10 11  1  0
 11 12  1  0
 11 13  1  0
 13 14  2  0
 13 15  1  0
 15 16  1  0
 16 17  1  0
 17 18  2  0
 18 19  1  0
 19 20  2  0
 20 21  1  0
 21 22  2  0
 22 23  1  0
 23 24  1  0
 24 25  1  0
 25 26  1  0
 26 27  1  0
 27 28  2  0
 27 29  1  0
 29 30  1  0
 30 31  1  0
 30 32  1  0
 30 33  1  0
  9  2  1  0
 24 15  1  0
 22 17  1  0
M  END
>  <pIC50>  (241) 
7.21

>  <ChEMBL_ID>  (241) 
CHEMBL310842

>  <document_journal>  (241) 
J. Med. Chem.

>  <bao_endpoint>  (241) 
BAO_0000190

>  <potential_duplicate>  (241) 
False

>  <uo_units>  (241) 
UO_0000065

>  <canonical_smiles>  (241) 
Cc1cc(O)cc(C)c1C[C@H](N)C(=O)N2Cc3ccccc3C[C@H]2CNC(=O)NC(C)(C)C

>  <parent_molecule_chembl_id>  (241) 
CHEMBL310842

>  <assay_type>  (241) 
B

>  <src_id>  (241) 
1

>  <ligand_efficiency>  (241) 
{u'le': u'0.3', u'bei': u'15.93', u'sei': u'6.69', u'lle': u'4.01'}

>  <standard_flag>  (241) 
True

>  <molecule_chembl_id>  (241) 
CHEMBL310842

>  <target_organism>  (241) 
Homo sapiens

>  <standard_units>  (241) 
nM

>  <record_id>  (241) 
140320

>  <document_chembl_id>  (241) 
CHEMBL1134689

>  <bao_format>  (241) 
BAO_0000357

>  <data_validity_description>  (241) 
None

>  <activity_id>  (241) 
1062286

>  <standard_type>  (241) 
IC50

>  <target_chembl_id>  (241) 
CHEMBL233

>  <data_validity_comment>  (241) 
None

>  <published_value>  (241) 
61.8

>  <document_year>  (241) 
2001

>  <target_pref_name>  (241) 
Mu opioid receptor

>  <assay_chembl_id>  (241) 
CHEMBL757823

>  <standard_relation>  (241) 
=

>  <assay_description>  (241) 
Binding affinity at cloned human mu-opioid receptor

>  <published_relation>  (241) 
=

>  <standard_value>  (241) 
61.8

>  <qudt_units>  (241) 
http://www.openphacts.org/units/Nanomolar

>  <target_tax_id>  (241) 
9606

>  <bao_label>  (241) 
single protein format

>  <published_units>  (241) 
nM

>  <pchembl_value>  (241) 
7.21

>  <published_type>  (241) 
IC50

>  <activity_comment>  (241) 
None

$$$$

     RDKit          

 37 40  0  0  0  0  0  0  0  0999 V2000
    0.0000    0.0000    0.0000 C   0  0  0  0  0  0  0  0  0  0  0  0
    0.0000    0.0000    0.0000 O   0  0  0  0  0  0  0  0  0  0  0  0
    0.0000    0.0000    0.0000 C   0  0  0  0  0  0  0  0  0  0  0  0
    0.0000    0.0000    0.0000 C   0  0  0  0  0  0  0  0  0  0  0  0
    0.0000    0.0000    0.0000 C   0  0  0  0  0  0  0  0  0  0  0  0
    0.0000    0.0000    0.0000 C   0  0  0  0  0  0  0  0  0  0  0  0
    0.0000    0.0000    0.0000 C   0  0  0  0  0  0  0  0  0  0  0  0
    0.0000    0.0000    0.0000 C   0  0  0  0  0  0  0  0  0  0  0  0
    0.0000    0.0000    0.0000 C   0  0  0  0  0  0  0  0  0  0  0  0
    0.0000    0.0000    0.0000 C   0  0  0  0  0  0  0  0  0  0  0  0
    0.0000    0.0000    0.0000 C   0  0  0  0  0  0  0  0  0  0  0  0
    0.0000    0.0000    0.0000 C   0  0  0  0  0  0  0  0  0  0  0  0
    0.0000    0.0000    0.0000 C   0  0  0  0  0  0  0  0  0  0  0  0
    0.0000    0.0000    0.0000 N   0  0  0  0  0  0  0  0  0  0  0  0
    0.0000    0.0000    0.0000 C   0  0  0  0  0  0  0  0  0  0  0  0
    0.0000    0.0000    0.0000 C   0  0  0  0  0  0  0  0  0  0  0  0
    0.0000    0.0000    0.0000 C   0  0  0  0  0  0  0  0  0  0  0  0
    0.0000    0.0000    0.0000 C   0  0  0  0  0  0  0  0  0  0  0  0
    0.0000    0.0000    0.0000 O   0  0  0  0  0  0  0  0  0  0  0  0
    0.0000    0.0000    0.0000 C   0  0  0  0  0  0  0  0  0  0  0  0
    0.0000    0.0000    0.0000 C   0  0  0  0  0  0  0  0  0  0  0  0
    0.0000    0.0000    0.0000 O   0  0  0  0  0  0  0  0  0  0  0  0
    0.0000    0.0000    0.0000 C   0  0  0  0  0  0  0  0  0  0  0  0
    0.0000    0.0000    0.0000 N   0  0  0  0  0  0  0  0  0  0  0  0
    0.0000    0.0000    0.0000 C   0  0  0  0  0  0  0  0  0  0  0  0
    0.0000    0.0000    0.0000 C   0  0  0  0  0  0  0  0  0  0  0  0
    0.0000    0.0000    0.0000 C   0  0  0  0  0  0  0  0  0  0  0  0
    0.0000    0.0000    0.0000 C   0  0  0  0  0  0  0  0  0  0  0  0
    0.0000    0.0000    0.0000 C   0  0  0  0  0  0  0  0  0  0  0  0
    0.0000    0.0000    0.0000 C   0  0  0  0  0  0  0  0  0  0  0  0
    0.0000    0.0000    0.0000 O   0  0  0  0  0  0  0  0  0  0  0  0
    0.0000    0.0000    0.0000 C   0  0  0  0  0  0  0  0  0  0  0  0
    0.0000    0.0000    0.0000 C   0  0  0  0  0  0  0  0  0  0  0  0
    0.0000    0.0000    0.0000 C   0  0  0  0  0  0  0  0  0  0  0  0
    0.0000    0.0000    0.0000 C   0  0  0  0  0  0  0  0  0  0  0  0
    0.0000    0.0000    0.0000 O   0  0  0  0  0  0  0  0  0  0  0  0
    0.0000    0.0000    0.0000 O   0  0  0  0  0  0  0  0  0  0  0  0
  1  2  1  0
  2  3  1  0
  3  4  2  0
  4  5  1  0
  5  6  2  0
  6  7  1  0
  7  8  2  0
  6  9  1  0
  9 10  2  0
 10 11  1  0
 11 12  1  0
 12 13  1  0
 13 14  1  0
 14 15  1  0
 15 16  1  0
 16 17  1  0
 17 18  2  0
 18 19  1  0
 19 20  1  0
 14 21  1  0
 21 22  2  0
 21 23  1  0
 23 24  1  0
 23 25  1  0
 25 26  1  0
 26 27  2  0
 27 28  1  0
 27 29  1  0
 29 30  2  0
 30 31  1  0
 30 32  1  0
 32 33  2  0
 33 34  1  0
 13 35  1  0
 35 36  2  0
 35 37  1  0
  8  3  1  0
 18  9  1  0
 16 11  2  0
 33 26  1  0
M  END
>  <pIC50>  (242) 
5.33

>  <ChEMBL_ID>  (242) 
CHEMBL45842

>  <document_journal>  (242) 
Bioorg. Med. Chem. Lett.

>  <bao_endpoint>  (242) 
BAO_0000190

>  <potential_duplicate>  (242) 
False

>  <uo_units>  (242) 
UO_0000065

>  <canonical_smiles>  (242) 
COc1ccc(cc1)c2cc3C[C@H](N(Cc3cc2OC)C(=O)C(N)Cc4c(C)cc(O)cc4C)C(=O)O

>  <parent_molecule_chembl_id>  (242) 
CHEMBL45842

>  <assay_type>  (242) 
B

>  <src_id>  (242) 
1

>  <ligand_efficiency>  (242) 
{u'le': u'0.2', u'bei': u'10.57', u'sei': u'4.36', u'lle': u'3.66'}

>  <standard_flag>  (242) 
True

>  <molecule_chembl_id>  (242) 
CHEMBL45842

>  <target_organism>  (242) 
Homo sapiens

>  <standard_units>  (242) 
nM

>  <record_id>  (242) 
76661

>  <document_chembl_id>  (242) 
CHEMBL1132761

>  <bao_format>  (242) 
BAO_0000357

>  <data_validity_description>  (242) 
None

>  <activity_id>  (242) 
1064477

>  <standard_type>  (242) 
IC50

>  <target_chembl_id>  (242) 
CHEMBL233

>  <data_validity_comment>  (242) 
None

>  <published_value>  (242) 
4640

>  <document_year>  (242) 
2000

>  <target_pref_name>  (242) 
Mu opioid receptor

>  <assay_chembl_id>  (242) 
CHEMBL757307

>  <standard_relation>  (242) 
=

>  <assay_description>  (242) 
Compound was evaluated for binding affinity towards Opioid receptor mu 1 by displacing 125 I-FK-33824

>  <published_relation>  (242) 
=

>  <standard_value>  (242) 
4640

>  <qudt_units>  (242) 
http://www.openphacts.org/units/Nanomolar

>  <target_tax_id>  (242) 
9606

>  <bao_label>  (242) 
single protein format

>  <published_units>  (242) 
nM

>  <pchembl_value>  (242) 
5.33

>  <published_type>  (242) 
IC50

>  <activity_comment>  (242) 
None

$$$$

     RDKit          

 39 44  0  0  0  0  0  0  0  0999 V2000
    0.0000    0.0000    0.0000 C   0  0  0  0  0  0  0  0  0  0  0  0
    0.0000    0.0000    0.0000 C   0  0  0  0  0  0  0  0  0  0  0  0
    0.0000    0.0000    0.0000 C   0  0  0  0  0  0  0  0  0  0  0  0
    0.0000    0.0000    0.0000 C   0  0  0  0  0  0  0  0  0  0  0  0
    0.0000    0.0000    0.0000 O   0  0  0  0  0  0  0  0  0  0  0  0
    0.0000    0.0000    0.0000 C   0  0  0  0  0  0  0  0  0  0  0  0
    0.0000    0.0000    0.0000 C   0  0  0  0  0  0  0  0  0  0  0  0
    0.0000    0.0000    0.0000 C   0  0  0  0  0  0  0  0  0  0  0  0
    0.0000    0.0000    0.0000 C   0  0  0  0  0  0  0  0  0  0  0  0
    0.0000    0.0000    0.0000 C   0  0  0  0  0  0  0  0  0  0  0  0
    0.0000    0.0000    0.0000 C   0  0  0  0  0  0  0  0  0  0  0  0
    0.0000    0.0000    0.0000 N   0  0  0  0  0  0  0  0  0  0  0  0
    0.0000    0.0000    0.0000 C   0  0  0  0  0  0  0  0  0  0  0  0
    0.0000    0.0000    0.0000 O   0  0  0  0  0  0  0  0  0  0  0  0
    0.0000    0.0000    0.0000 N   0  0  0  0  0  0  0  0  0  0  0  0
    0.0000    0.0000    0.0000 C   0  0  0  0  0  0  0  0  0  0  0  0
    0.0000    0.0000    0.0000 C   0  0  0  0  0  0  0  0  0  0  0  0
    0.0000    0.0000    0.0000 C   0  0  0  0  0  0  0  0  0  0  0  0
    0.0000    0.0000    0.0000 C   0  0  0  0  0  0  0  0  0  0  0  0
    0.0000    0.0000    0.0000 C   0  0  0  0  0  0  0  0  0  0  0  0
    0.0000    0.0000    0.0000 C   0  0  0  0  0  0  0  0  0  0  0  0
    0.0000    0.0000    0.0000 C   0  0  0  0  0  0  0  0  0  0  0  0
    0.0000    0.0000    0.0000 C   0  0  0  0  0  0  0  0  0  0  0  0
    0.0000    0.0000    0.0000 C   0  0  0  0  0  0  0  0  0  0  0  0
    0.0000    0.0000    0.0000 C   0  0  0  0  0  0  0  0  0  0  0  0
    0.0000    0.0000    0.0000 N   0  0  0  0  0  0  0  0  0  0  0  0
    0.0000    0.0000    0.0000 C   0  0  0  0  0  0  0  0  0  0  0  0
    0.0000    0.0000    0.0000 O   0  0  0  0  0  0  0  0  0  0  0  0
    0.0000    0.0000    0.0000 N   0  0  0  0  0  0  0  0  0  0  0  0
    0.0000    0.0000    0.0000 C   0  0  0  0  0  0  0  0  0  0  0  0
    0.0000    0.0000    0.0000 C   0  0  0  0  0  0  0  0  0  0  0  0
    0.0000    0.0000    0.0000 C   0  0  0  0  0  0  0  0  0  0  0  0
    0.0000    0.0000    0.0000 C   0  0  0  0  0  0  0  0  0  0  0  0
    0.0000    0.0000    0.0000 C   0  0  0  0  0  0  0  0  0  0  0  0
    0.0000    0.0000    0.0000 C   0  0  0  0  0  0  0  0  0  0  0  0
    0.0000    0.0000    0.0000 C   0  0  0  0  0  0  0  0  0  0  0  0
    0.0000    0.0000    0.0000 C   0  0  0  0  0  0  0  0  0  0  0  0
    0.0000    0.0000    0.0000 C   0  0  0  0  0  0  0  0  0  0  0  0
    0.0000    0.0000    0.0000 C   0  0  0  0  0  0  0  0  0  0  0  0
  1  2  1  0
  2  3  2  0
  3  4  1  0
  4  5  1  0
  4  6  2  0
  6  7  1  0
  7  8  1  0
  7  9  2  0
  9 10  1  0
 10 11  1  0
 11 12  1  0
 11 13  1  0
 13 14  2  0
 13 15  1  0
 15 16  1  0
 16 17  1  0
 17 18  2  0
 18 19  1  0
 19 20  2  0
 20 21  1  0
 21 22  2  0
 22 23  1  0
 23 24  1  0
 24 25  1  0
 25 26  1  0
 26 27  1  0
 27 28  2  0
 27 29  1  0
 29 30  1  0
 30 31  1  0
 31 32  1  0
 32 33  1  0
 33 34  1  0
 34 35  1  0
 35 36  1  0
 36 37  1  0
 36 38  1  0
 34 39  1  0
  9  2  1  0
 24 15  1  0
 22 17  1  0
 38 30  1  0
 39 30  1  0
 37 32  1  0
M  END
>  <pIC50>  (243) 
8.96

>  <ChEMBL_ID>  (243) 
CHEMBL77804

>  <document_journal>  (243) 
J. Med. Chem.

>  <bao_endpoint>  (243) 
BAO_0000190

>  <potential_duplicate>  (243) 
False

>  <uo_units>  (243) 
UO_0000065

>  <canonical_smiles>  (243) 
Cc1cc(O)cc(C)c1C[C@H](N)C(=O)N2Cc3ccccc3C[C@H]2CNC(=O)NC45CC6CC(CC(C6)C4)C5

>  <parent_molecule_chembl_id>  (243) 
CHEMBL77804

>  <assay_type>  (243) 
B

>  <src_id>  (243) 
1

>  <ligand_efficiency>  (243) 
{u'le': u'0.31', u'bei': u'16.88', u'sei': u'8.32', u'lle': u'4.55'}

>  <standard_flag>  (243) 
True

>  <molecule_chembl_id>  (243) 
CHEMBL77804

>  <target_organism>  (243) 
Homo sapiens

>  <standard_units>  (243) 
nM

>  <record_id>  (243) 
140319

>  <document_chembl_id>  (243) 
CHEMBL1134689

>  <bao_format>  (243) 
BAO_0000357

>  <data_validity_description>  (243) 
None

>  <activity_id>  (243) 
1064741

>  <standard_type>  (243) 
IC50

>  <target_chembl_id>  (243) 
CHEMBL233

>  <data_validity_comment>  (243) 
None

>  <published_value>  (243) 
1.1

>  <document_year>  (243) 
2001

>  <target_pref_name>  (243) 
Mu opioid receptor

>  <assay_chembl_id>  (243) 
CHEMBL757823

>  <standard_relation>  (243) 
=

>  <assay_description>  (243) 
Binding affinity at cloned human mu-opioid receptor

>  <published_relation>  (243) 
=

>  <standard_value>  (243) 
1.1

>  <qudt_units>  (243) 
http://www.openphacts.org/units/Nanomolar

>  <target_tax_id>  (243) 
9606

>  <bao_label>  (243) 
single protein format

>  <published_units>  (243) 
nM

>  <pchembl_value>  (243) 
8.96

>  <published_type>  (243) 
IC50

>  <activity_comment>  (243) 
None

$$$$

     RDKit          

  8  7  0  0  0  0  0  0  0  0999 V2000
    0.0000    0.0000    0.0000 C   0  0  0  0  0  0  0  0  0  0  0  0
    0.0000    0.0000    0.0000 C   0  0  0  0  0  0  0  0  0  0  0  0
    0.0000    0.0000    0.0000 C   0  0  0  0  0  0  0  0  0  0  0  0
    0.0000    0.0000    0.0000 C   0  0  0  0  0  0  0  0  0  0  0  0
    0.0000    0.0000    0.0000 C   0  0  0  0  0  0  0  0  0  0  0  0
    0.0000    0.0000    0.0000 C   0  0  0  0  0  0  0  0  0  0  0  0
    0.0000    0.0000    0.0000 C   0  0  0  0  0  0  0  0  0  0  0  0
    0.0000    0.0000    0.0000 N   0  0  0  0  0  0  0  0  0  0  0  0
  1  2  1  0
  2  3  1  0
  3  4  1  0
  4  5  1  0
  5  6  1  0
  6  7  1  0
  6  8  1  0
M  END
>  <pIC50>  (244) 
7.85

>  <ChEMBL_ID>  (244) 
CHEMBL123693

>  <document_journal>  (244) 
J. Med. Chem.

>  <bao_endpoint>  (244) 
BAO_0000190

>  <potential_duplicate>  (244) 
False

>  <uo_units>  (244) 
UO_0000065

>  <canonical_smiles>  (244) 
CCCCCC(C)N

>  <parent_molecule_chembl_id>  (244) 
CHEMBL123693

>  <assay_type>  (244) 
F

>  <src_id>  (244) 
1

>  <ligand_efficiency>  (244) 
None

>  <standard_flag>  (244) 
True

>  <molecule_chembl_id>  (244) 
CHEMBL123693

>  <target_organism>  (244) 
Homo sapiens

>  <standard_units>  (244) 
nM

>  <record_id>  (244) 
236206

>  <document_chembl_id>  (244) 
CHEMBL1132386

>  <bao_format>  (244) 
BAO_0000019

>  <data_validity_description>  (244) 
None

>  <activity_id>  (244) 
1071897

>  <standard_type>  (244) 
IC50

>  <target_chembl_id>  (244) 
CHEMBL233

>  <data_validity_comment>  (244) 
None

>  <published_value>  (244) 
14

>  <document_year>  (244) 
1999

>  <target_pref_name>  (244) 
Mu opioid receptor

>  <assay_chembl_id>  (244) 
CHEMBL757305

>  <standard_relation>  (244) 
=

>  <assay_description>  (244) 
Antagonistic activity towards Opioid receptor mu 1

>  <published_relation>  (244) 
=

>  <standard_value>  (244) 
14

>  <qudt_units>  (244) 
http://www.openphacts.org/units/Nanomolar

>  <target_tax_id>  (244) 
9606

>  <bao_label>  (244) 
assay format

>  <published_units>  (244) 
nM

>  <pchembl_value>  (244) 
7.85

>  <published_type>  (244) 
IC50

>  <activity_comment>  (244) 
None

$$$$

     RDKit          

 35 37  0  0  0  0  0  0  0  0999 V2000
    0.0000    0.0000    0.0000 C   0  0  0  0  0  0  0  0  0  0  0  0
    0.0000    0.0000    0.0000 O   0  0  0  0  0  0  0  0  0  0  0  0
    0.0000    0.0000    0.0000 C   0  0  0  0  0  0  0  0  0  0  0  0
    0.0000    0.0000    0.0000 C   0  0  0  0  0  0  0  0  0  0  0  0
    0.0000    0.0000    0.0000 C   0  0  0  0  0  0  0  0  0  0  0  0
    0.0000    0.0000    0.0000 C   0  0  0  0  0  0  0  0  0  0  0  0
    0.0000    0.0000    0.0000 C   0  0  0  0  0  0  0  0  0  0  0  0
    0.0000    0.0000    0.0000 C   0  0  0  0  0  0  0  0  0  0  0  0
    0.0000    0.0000    0.0000 C   0  0  0  0  0  0  0  0  0  0  0  0
    0.0000    0.0000    0.0000 N   0  0  0  0  0  0  0  0  0  0  0  0
    0.0000    0.0000    0.0000 C   0  0  0  0  0  0  0  0  0  0  0  0
    0.0000    0.0000    0.0000 C   0  0  0  0  0  0  0  0  0  0  0  0
    0.0000    0.0000    0.0000 C   0  0  0  0  0  0  0  0  0  0  0  0
    0.0000    0.0000    0.0000 N   0  0  0  0  0  0  0  0  0  0  0  0
    0.0000    0.0000    0.0000 C   0  0  0  0  0  0  0  0  0  0  0  0
    0.0000    0.0000    0.0000 C   0  0  0  0  0  0  0  0  0  0  0  0
    0.0000    0.0000    0.0000 C   0  0  0  0  0  0  0  0  0  0  0  0
    0.0000    0.0000    0.0000 C   0  0  0  0  0  0  0  0  0  0  0  0
    0.0000    0.0000    0.0000 C   0  0  0  0  0  0  0  0  0  0  0  0
    0.0000    0.0000    0.0000 C   0  0  0  0  0  0  0  0  0  0  0  0
    0.0000    0.0000    0.0000 C   0  0  0  0  0  0  0  0  0  0  0  0
    0.0000    0.0000    0.0000 C   0  0  0  0  0  0  0  0  0  0  0  0
    0.0000    0.0000    0.0000 C   0  0  0  0  0  0  0  0  0  0  0  0
    0.0000    0.0000    0.0000 C   0  0  0  0  0  0  0  0  0  0  0  0
    0.0000    0.0000    0.0000 C   0  0  0  0  0  0  0  0  0  0  0  0
    0.0000    0.0000    0.0000 C   0  0  0  0  0  0  0  0  0  0  0  0
    0.0000    0.0000    0.0000 C   0  0  0  0  0  0  0  0  0  0  0  0
    0.0000    0.0000    0.0000 O   0  0  0  0  0  0  0  0  0  0  0  0
    0.0000    0.0000    0.0000 N   0  0  0  0  0  0  0  0  0  0  0  0
    0.0000    0.0000    0.0000 C   0  0  0  0  0  0  0  0  0  0  0  0
    0.0000    0.0000    0.0000 C   0  0  0  0  0  0  0  0  0  0  0  0
    0.0000    0.0000    0.0000 C   0  0  0  0  0  0  0  0  0  0  0  0
    0.0000    0.0000    0.0000 C   0  0  0  0  0  0  0  0  0  0  0  0
    0.0000    0.0000    0.0000 C   0  0  0  0  0  0  0  0  0  0  0  0
    0.0000    0.0000    0.0000 C   0  0  0  0  0  0  0  0  0  0  0  0
  1  2  1  0
  2  3  1  0
  3  4  2  0
  4  5  1  0
  5  6  2  0
  6  7  1  0
  7  8  2  0
  7  9  1  0
  9 10  1  0
 10 11  1  0
 11 12  1  0
 12 13  1  0
 12 14  1  0
 14 15  1  0
 15 16  1  0
 16 17  2  0
 14 18  1  0
 18 19  1  0
 19 20  1  0
  9 21  1  0
 21 22  2  0
 22 23  1  0
 23 24  2  0
 24 25  1  0
 25 26  2  0
 24 27  1  0
 27 28  2  0
 27 29  1  0
 29 30  1  0
 30 31  1  0
 30 32  1  0
 29 33  1  0
 33 34  1  0
 33 35  1  0
  8  3  1  0
 19 10  1  0
 26 21  1  0
M  END
>  <pIC50>  (245) 
5.17

>  <ChEMBL_ID>  (245) 
CHEMBL98800

>  <document_journal>  (245) 
J. Med. Chem.

>  <bao_endpoint>  (245) 
BAO_0000190

>  <potential_duplicate>  (245) 
False

>  <uo_units>  (245) 
UO_0000065

>  <canonical_smiles>  (245) 
COc1cccc(c1)[C@H](N2C[C@@H](C)N(CC=C)C[C@@H]2C)c3ccc(cc3)C(=O)N(C(C)C)C(C)C

>  <parent_molecule_chembl_id>  (245) 
CHEMBL98800

>  <assay_type>  (245) 
B

>  <src_id>  (245) 
1

>  <ligand_efficiency>  (245) 
{u'le': u'0.2', u'bei': u'10.81', u'sei': u'14.34', u'lle': u'-0.53'}

>  <standard_flag>  (245) 
True

>  <molecule_chembl_id>  (245) 
CHEMBL98800

>  <target_organism>  (245) 
Homo sapiens

>  <standard_units>  (245) 
nM

>  <record_id>  (245) 
186091

>  <document_chembl_id>  (245) 
CHEMBL1130143

>  <bao_format>  (245) 
BAO_0000357

>  <data_validity_description>  (245) 
None

>  <activity_id>  (245) 
1104189

>  <standard_type>  (245) 
IC50

>  <target_chembl_id>  (245) 
CHEMBL233

>  <data_validity_comment>  (245) 
None

>  <published_value>  (245) 
6837

>  <document_year>  (245) 
1997

>  <target_pref_name>  (245) 
Mu opioid receptor

>  <assay_chembl_id>  (245) 
CHEMBL754684

>  <standard_relation>  (245) 
=

>  <assay_description>  (245) 
Binding affinity for micro receptors by the inhibition of binding of [3H]DAMGO to Opioid receptor mu 1 in human cloned receptors.

>  <published_relation>  (245) 
=

>  <standard_value>  (245) 
6837

>  <qudt_units>  (245) 
http://www.openphacts.org/units/Nanomolar

>  <target_tax_id>  (245) 
9606

>  <bao_label>  (245) 
single protein format

>  <published_units>  (245) 
nM

>  <pchembl_value>  (245) 
5.17

>  <published_type>  (245) 
IC50

>  <activity_comment>  (245) 
None

$$$$

     RDKit          

 35 38  0  0  0  0  0  0  0  0999 V2000
    0.0000    0.0000    0.0000 C   0  0  0  0  0  0  0  0  0  0  0  0
    0.0000    0.0000    0.0000 O   0  0  0  0  0  0  0  0  0  0  0  0
    0.0000    0.0000    0.0000 C   0  0  0  0  0  0  0  0  0  0  0  0
    0.0000    0.0000    0.0000 C   0  0  0  0  0  0  0  0  0  0  0  0
    0.0000    0.0000    0.0000 C   0  0  0  0  0  0  0  0  0  0  0  0
    0.0000    0.0000    0.0000 C   0  0  0  0  0  0  0  0  0  0  0  0
    0.0000    0.0000    0.0000 C   0  0  0  0  0  0  0  0  0  0  0  0
    0.0000    0.0000    0.0000 C   0  0  0  0  0  0  0  0  0  0  0  0
    0.0000    0.0000    0.0000 C   0  0  0  0  0  0  0  0  0  0  0  0
    0.0000    0.0000    0.0000 N   0  0  0  0  0  0  0  0  0  0  0  0
    0.0000    0.0000    0.0000 C   0  0  0  0  0  0  0  0  0  0  0  0
    0.0000    0.0000    0.0000 C   0  0  0  0  0  0  0  0  0  0  0  0
    0.0000    0.0000    0.0000 C   0  0  0  0  0  0  0  0  0  0  0  0
    0.0000    0.0000    0.0000 N   0  0  0  0  0  0  0  0  0  0  0  0
    0.0000    0.0000    0.0000 C   0  0  0  0  0  0  0  0  0  0  0  0
    0.0000    0.0000    0.0000 C   0  0  0  0  0  0  0  0  0  0  0  0
    0.0000    0.0000    0.0000 C   0  0  0  0  0  0  0  0  0  0  0  0
    0.0000    0.0000    0.0000 C   0  0  0  0  0  0  0  0  0  0  0  0
    0.0000    0.0000    0.0000 C   0  0  0  0  0  0  0  0  0  0  0  0
    0.0000    0.0000    0.0000 C   0  0  0  0  0  0  0  0  0  0  0  0
    0.0000    0.0000    0.0000 C   0  0  0  0  0  0  0  0  0  0  0  0
    0.0000    0.0000    0.0000 C   0  0  0  0  0  0  0  0  0  0  0  0
    0.0000    0.0000    0.0000 C   0  0  0  0  0  0  0  0  0  0  0  0
    0.0000    0.0000    0.0000 C   0  0  0  0  0  0  0  0  0  0  0  0
    0.0000    0.0000    0.0000 C   0  0  0  0  0  0  0  0  0  0  0  0
    0.0000    0.0000    0.0000 C   0  0  0  0  0  0  0  0  0  0  0  0
    0.0000    0.0000    0.0000 C   0  0  0  0  0  0  0  0  0  0  0  0
    0.0000    0.0000    0.0000 O   0  0  0  0  0  0  0  0  0  0  0  0
    0.0000    0.0000    0.0000 N   0  0  0  0  0  0  0  0  0  0  0  0
    0.0000    0.0000    0.0000 C   0  0  0  0  0  0  0  0  0  0  0  0
    0.0000    0.0000    0.0000 C   0  0  0  0  0  0  0  0  0  0  0  0
    0.0000    0.0000    0.0000 C   0  0  0  0  0  0  0  0  0  0  0  0
    0.0000    0.0000    0.0000 C   0  0  0  0  0  0  0  0  0  0  0  0
    0.0000    0.0000    0.0000 C   0  0  0  0  0  0  0  0  0  0  0  0
    0.0000    0.0000    0.0000 C   0  0  0  0  0  0  0  0  0  0  0  0
  1  2  1  0
  2  3  1  0
  3  4  2  0
  4  5  1  0
  5  6  2  0
  6  7  1  0
  7  8  2  0
  7  9  1  0
  9 10  1  0
 10 11  1  0
 11 12  1  0
 12 13  1  0
 12 14  1  0
 14 15  1  0
 15 16  1  0
 16 17  2  0
 14 18  1  0
 18 19  1  0
 19 20  1  0
  9 21  1  0
 21 22  2  0
 22 23  1  0
 23 24  2  0
 24 25  1  0
 25 26  2  0
 24 27  1  0
 27 28  2  0
 27 29  1  0
 29 30  1  0
 30 31  1  0
 31 32  1  0
 32 33  1  0
 33 34  1  0
 34 35  1  0
  8  3  1  0
 19 10  1  0
 26 21  1  0
 35 29  1  0
M  END
>  <pIC50>  (246) 
5.35

>  <ChEMBL_ID>  (246) 
CHEMBL430675

>  <document_journal>  (246) 
J. Med. Chem.

>  <bao_endpoint>  (246) 
BAO_0000190

>  <potential_duplicate>  (246) 
False

>  <uo_units>  (246) 
UO_0000065

>  <canonical_smiles>  (246) 
COc1cccc(c1)[C@H](N2C[C@@H](C)N(CC=C)C[C@@H]2C)c3ccc(cc3)C(=O)N4CCCCCC4

>  <parent_molecule_chembl_id>  (246) 
CHEMBL430675

>  <assay_type>  (246) 
B

>  <src_id>  (246) 
1

>  <ligand_efficiency>  (246) 
{u'le': u'0.21', u'bei': u'11.25', u'sei': u'14.86', u'lle': u'-0.27'}

>  <standard_flag>  (246) 
True

>  <molecule_chembl_id>  (246) 
CHEMBL430675

>  <target_organism>  (246) 
Homo sapiens

>  <standard_units>  (246) 
nM

>  <record_id>  (246) 
186076

>  <document_chembl_id>  (246) 
CHEMBL1130143

>  <bao_format>  (246) 
BAO_0000357

>  <data_validity_description>  (246) 
None

>  <activity_id>  (246) 
1111320

>  <standard_type>  (246) 
IC50

>  <target_chembl_id>  (246) 
CHEMBL233

>  <data_validity_comment>  (246) 
None

>  <published_value>  (246) 
4470

>  <document_year>  (246) 
1997

>  <target_pref_name>  (246) 
Mu opioid receptor

>  <assay_chembl_id>  (246) 
CHEMBL754684

>  <standard_relation>  (246) 
=

>  <assay_description>  (246) 
Binding affinity for micro receptors by the inhibition of binding of [3H]DAMGO to Opioid receptor mu 1 in human cloned receptors.

>  <published_relation>  (246) 
=

>  <standard_value>  (246) 
4470

>  <qudt_units>  (246) 
http://www.openphacts.org/units/Nanomolar

>  <target_tax_id>  (246) 
9606

>  <bao_label>  (246) 
single protein format

>  <published_units>  (246) 
nM

>  <pchembl_value>  (246) 
5.35

>  <published_type>  (246) 
IC50

>  <activity_comment>  (246) 
None

$$$$

     RDKit          

 35 37  0  0  0  0  0  0  0  0999 V2000
    0.0000    0.0000    0.0000 C   0  0  0  0  0  0  0  0  0  0  0  0
    0.0000    0.0000    0.0000 C   0  0  0  0  0  0  0  0  0  0  0  0
    0.0000    0.0000    0.0000 C   0  0  0  0  0  0  0  0  0  0  0  0
    0.0000    0.0000    0.0000 C   0  0  0  0  0  0  0  0  0  0  0  0
    0.0000    0.0000    0.0000 N   0  0  0  0  0  0  0  0  0  0  0  0
    0.0000    0.0000    0.0000 C   0  0  0  0  0  0  0  0  0  0  0  0
    0.0000    0.0000    0.0000 C   0  0  0  0  0  0  0  0  0  0  0  0
    0.0000    0.0000    0.0000 C   0  0  0  0  0  0  0  0  0  0  0  0
    0.0000    0.0000    0.0000 O   0  0  0  0  0  0  0  0  0  0  0  0
    0.0000    0.0000    0.0000 C   0  0  0  0  0  0  0  0  0  0  0  0
    0.0000    0.0000    0.0000 C   0  0  0  0  0  0  0  0  0  0  0  0
    0.0000    0.0000    0.0000 C   0  0  0  0  0  0  0  0  0  0  0  0
    0.0000    0.0000    0.0000 C   0  0  0  0  0  0  0  0  0  0  0  0
    0.0000    0.0000    0.0000 C   0  0  0  0  0  0  0  0  0  0  0  0
    0.0000    0.0000    0.0000 C   0  0  0  0  0  0  0  0  0  0  0  0
    0.0000    0.0000    0.0000 C   0  0  0  0  0  0  0  0  0  0  0  0
    0.0000    0.0000    0.0000 N   0  0  0  0  0  0  0  0  0  0  0  0
    0.0000    0.0000    0.0000 C   0  0  0  0  0  0  0  0  0  0  0  0
    0.0000    0.0000    0.0000 C   0  0  0  0  0  0  0  0  0  0  0  0
    0.0000    0.0000    0.0000 C   0  0  0  0  0  0  0  0  0  0  0  0
    0.0000    0.0000    0.0000 N   0  0  0  0  0  0  0  0  0  0  0  0
    0.0000    0.0000    0.0000 C   0  0  0  0  0  0  0  0  0  0  0  0
    0.0000    0.0000    0.0000 C   0  0  0  0  0  0  0  0  0  0  0  0
    0.0000    0.0000    0.0000 C   0  0  0  0  0  0  0  0  0  0  0  0
    0.0000    0.0000    0.0000 C   0  0  0  0  0  0  0  0  0  0  0  0
    0.0000    0.0000    0.0000 C   0  0  0  0  0  0  0  0  0  0  0  0
    0.0000    0.0000    0.0000 C   0  0  0  0  0  0  0  0  0  0  0  0
    0.0000    0.0000    0.0000 C   0  0  0  0  0  0  0  0  0  0  0  0
    0.0000    0.0000    0.0000 C   0  0  0  0  0  0  0  0  0  0  0  0
    0.0000    0.0000    0.0000 C   0  0  0  0  0  0  0  0  0  0  0  0
    0.0000    0.0000    0.0000 C   0  0  0  0  0  0  0  0  0  0  0  0
    0.0000    0.0000    0.0000 C   0  0  0  0  0  0  0  0  0  0  0  0
    0.0000    0.0000    0.0000 O   0  0  0  0  0  0  0  0  0  0  0  0
    0.0000    0.0000    0.0000 C   0  0  0  0  0  0  0  0  0  0  0  0
    0.0000    0.0000    0.0000 C   0  0  0  0  0  0  0  0  0  0  0  0
  1  2  1  0
  2  3  1  0
  3  4  1  0
  4  5  1  0
  5  6  1  0
  6  7  1  0
  5  8  1  0
  8  9  2  0
  8 10  1  0
 10 11  2  0
 11 12  1  0
 12 13  2  0
 13 14  1  0
 14 15  2  0
 13 16  1  0
 16 17  1  0
 17 18  1  0
 18 19  1  0
 19 20  1  0
 19 21  1  0
 21 22  1  0
 22 23  1  0
 23 24  2  0
 21 25  1  0
 25 26  1  0
 26 27  1  0
 16 28  1  0
 28 29  2  0
 29 30  1  0
 30 31  2  0
 31 32  1  0
 32 33  1  0
 33 34  1  0
 32 35  2  0
 15 10  1  0
 26 17  1  0
 35 28  1  0
M  END
>  <pIC50>  (247) 
5.48

>  <ChEMBL_ID>  (247) 
CHEMBL102150

>  <document_journal>  (247) 
J. Med. Chem.

>  <bao_endpoint>  (247) 
BAO_0000190

>  <potential_duplicate>  (247) 
False

>  <uo_units>  (247) 
UO_0000065

>  <canonical_smiles>  (247) 
CCCCN(CC)C(=O)c1ccc(cc1)[C@@H](N2C[C@@H](C)N(CC=C)C[C@@H]2C)c3cccc(OC)c3

>  <parent_molecule_chembl_id>  (247) 
CHEMBL102150

>  <assay_type>  (247) 
B

>  <src_id>  (247) 
1

>  <ligand_efficiency>  (247) 
{u'le': u'0.21', u'bei': u'11.46', u'sei': u'15.21', u'lle': u'-0.44'}

>  <standard_flag>  (247) 
True

>  <molecule_chembl_id>  (247) 
CHEMBL102150

>  <target_organism>  (247) 
Homo sapiens

>  <standard_units>  (247) 
nM

>  <record_id>  (247) 
186070

>  <document_chembl_id>  (247) 
CHEMBL1130143

>  <bao_format>  (247) 
BAO_0000357

>  <data_validity_description>  (247) 
None

>  <activity_id>  (247) 
1112511

>  <standard_type>  (247) 
IC50

>  <target_chembl_id>  (247) 
CHEMBL233

>  <data_validity_comment>  (247) 
None

>  <published_value>  (247) 
3340

>  <document_year>  (247) 
1997

>  <target_pref_name>  (247) 
Mu opioid receptor

>  <assay_chembl_id>  (247) 
CHEMBL754684

>  <standard_relation>  (247) 
=

>  <assay_description>  (247) 
Binding affinity for micro receptors by the inhibition of binding of [3H]DAMGO to Opioid receptor mu 1 in human cloned receptors.

>  <published_relation>  (247) 
=

>  <standard_value>  (247) 
3340

>  <qudt_units>  (247) 
http://www.openphacts.org/units/Nanomolar

>  <target_tax_id>  (247) 
9606

>  <bao_label>  (247) 
single protein format

>  <published_units>  (247) 
nM

>  <pchembl_value>  (247) 
5.48

>  <published_type>  (247) 
IC50

>  <activity_comment>  (247) 
None

$$$$

     RDKit          

 32 34  0  0  0  0  0  0  0  0999 V2000
    0.0000    0.0000    0.0000 C   0  0  0  0  0  0  0  0  0  0  0  0
    0.0000    0.0000    0.0000 C   0  0  0  0  0  0  0  0  0  0  0  0
    0.0000    0.0000    0.0000 N   0  0  0  0  0  0  0  0  0  0  0  0
    0.0000    0.0000    0.0000 C   0  0  0  0  0  0  0  0  0  0  0  0
    0.0000    0.0000    0.0000 C   0  0  0  0  0  0  0  0  0  0  0  0
    0.0000    0.0000    0.0000 O   0  0  0  0  0  0  0  0  0  0  0  0
    0.0000    0.0000    0.0000 C   0  0  0  0  0  0  0  0  0  0  0  0
    0.0000    0.0000    0.0000 C   0  0  0  0  0  0  0  0  0  0  0  0
    0.0000    0.0000    0.0000 C   0  0  0  0  0  0  0  0  0  0  0  0
    0.0000    0.0000    0.0000 C   0  0  0  0  0  0  0  0  0  0  0  0
    0.0000    0.0000    0.0000 C   0  0  0  0  0  0  0  0  0  0  0  0
    0.0000    0.0000    0.0000 C   0  0  0  0  0  0  0  0  0  0  0  0
    0.0000    0.0000    0.0000 C   0  0  0  0  0  0  0  0  0  0  0  0
    0.0000    0.0000    0.0000 N   0  0  0  0  0  0  0  0  0  0  0  0
    0.0000    0.0000    0.0000 C   0  0  0  0  0  0  0  0  0  0  0  0
    0.0000    0.0000    0.0000 C   0  0  0  0  0  0  0  0  0  0  0  0
    0.0000    0.0000    0.0000 C   0  0  0  0  0  0  0  0  0  0  0  0
    0.0000    0.0000    0.0000 N   0  0  0  0  0  0  0  0  0  0  0  0
    0.0000    0.0000    0.0000 C   0  0  0  0  0  0  0  0  0  0  0  0
    0.0000    0.0000    0.0000 C   0  0  0  0  0  0  0  0  0  0  0  0
    0.0000    0.0000    0.0000 C   0  0  0  0  0  0  0  0  0  0  0  0
    0.0000    0.0000    0.0000 C   0  0  0  0  0  0  0  0  0  0  0  0
    0.0000    0.0000    0.0000 C   0  0  0  0  0  0  0  0  0  0  0  0
    0.0000    0.0000    0.0000 C   0  0  0  0  0  0  0  0  0  0  0  0
    0.0000    0.0000    0.0000 C   0  0  0  0  0  0  0  0  0  0  0  0
    0.0000    0.0000    0.0000 C   0  0  0  0  0  0  0  0  0  0  0  0
    0.0000    0.0000    0.0000 C   0  0  0  0  0  0  0  0  0  0  0  0
    0.0000    0.0000    0.0000 C   0  0  0  0  0  0  0  0  0  0  0  0
    0.0000    0.0000    0.0000 C   0  0  0  0  0  0  0  0  0  0  0  0
    0.0000    0.0000    0.0000 O   0  0  0  0  0  0  0  0  0  0  0  0
    0.0000    0.0000    0.0000 C   0  0  0  0  0  0  0  0  0  0  0  0
    0.0000    0.0000    0.0000 C   0  0  0  0  0  0  0  0  0  0  0  0
  1  2  1  0
  2  3  1  0
  3  4  1  0
  3  5  1  0
  5  6  2  0
  5  7  1  0
  7  8  2  0
  8  9  1  0
  9 10  2  0
 10 11  1  0
 11 12  2  0
 10 13  1  0
 13 14  1  0
 14 15  1  0
 15 16  1  0
 16 17  1  0
 16 18  1  0
 18 19  1  0
 19 20  1  0
 20 21  2  0
 18 22  1  0
 22 23  1  0
 23 24  1  0
 13 25  1  0
 25 26  2  0
 26 27  1  0
 27 28  2  0
 28 29  1  0
 29 30  1  0
 30 31  1  0
 29 32  2  0
 12  7  1  0
 23 14  1  0
 32 25  1  0
M  END
>  <pIC50>  (248) 
4.92

>  <ChEMBL_ID>  (248) 
CHEMBL431276

>  <document_journal>  (248) 
J. Med. Chem.

>  <bao_endpoint>  (248) 
BAO_0000190

>  <potential_duplicate>  (248) 
False

>  <uo_units>  (248) 
UO_0000065

>  <canonical_smiles>  (248) 
CCN(C)C(=O)c1ccc(cc1)[C@@H](N2C[C@@H](C)N(CC=C)C[C@@H]2C)c3cccc(OC)c3

>  <parent_molecule_chembl_id>  (248) 
CHEMBL431276

>  <assay_type>  (248) 
B

>  <src_id>  (248) 
1

>  <ligand_efficiency>  (248) 
{u'le': u'0.21', u'bei': u'11.29', u'sei': u'13.65', u'lle': u'0.33'}

>  <standard_flag>  (248) 
True

>  <molecule_chembl_id>  (248) 
CHEMBL431276

>  <target_organism>  (248) 
Homo sapiens

>  <standard_units>  (248) 
nM

>  <record_id>  (248) 
186094

>  <document_chembl_id>  (248) 
CHEMBL1130143

>  <bao_format>  (248) 
BAO_0000357

>  <data_validity_description>  (248) 
None

>  <activity_id>  (248) 
1119696

>  <standard_type>  (248) 
IC50

>  <target_chembl_id>  (248) 
CHEMBL233

>  <data_validity_comment>  (248) 
None

>  <published_value>  (248) 
12110

>  <document_year>  (248) 
1997

>  <target_pref_name>  (248) 
Mu opioid receptor

>  <assay_chembl_id>  (248) 
CHEMBL754684

>  <standard_relation>  (248) 
=

>  <assay_description>  (248) 
Binding affinity for micro receptors by the inhibition of binding of [3H]DAMGO to Opioid receptor mu 1 in human cloned receptors.

>  <published_relation>  (248) 
=

>  <standard_value>  (248) 
12110

>  <qudt_units>  (248) 
http://www.openphacts.org/units/Nanomolar

>  <target_tax_id>  (248) 
9606

>  <bao_label>  (248) 
single protein format

>  <published_units>  (248) 
nM

>  <pchembl_value>  (248) 
4.92

>  <published_type>  (248) 
IC50

>  <activity_comment>  (248) 
None

$$$$

     RDKit          

 33 36  0  0  0  0  0  0  0  0999 V2000
    0.0000    0.0000    0.0000 C   0  0  0  0  0  0  0  0  0  0  0  0
    0.0000    0.0000    0.0000 O   0  0  0  0  0  0  0  0  0  0  0  0
    0.0000    0.0000    0.0000 C   0  0  0  0  0  0  0  0  0  0  0  0
    0.0000    0.0000    0.0000 C   0  0  0  0  0  0  0  0  0  0  0  0
    0.0000    0.0000    0.0000 C   0  0  0  0  0  0  0  0  0  0  0  0
    0.0000    0.0000    0.0000 C   0  0  0  0  0  0  0  0  0  0  0  0
    0.0000    0.0000    0.0000 C   0  0  0  0  0  0  0  0  0  0  0  0
    0.0000    0.0000    0.0000 C   0  0  0  0  0  0  0  0  0  0  0  0
    0.0000    0.0000    0.0000 C   0  0  0  0  0  0  0  0  0  0  0  0
    0.0000    0.0000    0.0000 N   0  0  0  0  0  0  0  0  0  0  0  0
    0.0000    0.0000    0.0000 C   0  0  0  0  0  0  0  0  0  0  0  0
    0.0000    0.0000    0.0000 C   0  0  0  0  0  0  0  0  0  0  0  0
    0.0000    0.0000    0.0000 C   0  0  0  0  0  0  0  0  0  0  0  0
    0.0000    0.0000    0.0000 N   0  0  0  0  0  0  0  0  0  0  0  0
    0.0000    0.0000    0.0000 C   0  0  0  0  0  0  0  0  0  0  0  0
    0.0000    0.0000    0.0000 C   0  0  0  0  0  0  0  0  0  0  0  0
    0.0000    0.0000    0.0000 C   0  0  0  0  0  0  0  0  0  0  0  0
    0.0000    0.0000    0.0000 C   0  0  0  0  0  0  0  0  0  0  0  0
    0.0000    0.0000    0.0000 C   0  0  0  0  0  0  0  0  0  0  0  0
    0.0000    0.0000    0.0000 C   0  0  0  0  0  0  0  0  0  0  0  0
    0.0000    0.0000    0.0000 C   0  0  0  0  0  0  0  0  0  0  0  0
    0.0000    0.0000    0.0000 C   0  0  0  0  0  0  0  0  0  0  0  0
    0.0000    0.0000    0.0000 C   0  0  0  0  0  0  0  0  0  0  0  0
    0.0000    0.0000    0.0000 C   0  0  0  0  0  0  0  0  0  0  0  0
    0.0000    0.0000    0.0000 C   0  0  0  0  0  0  0  0  0  0  0  0
    0.0000    0.0000    0.0000 C   0  0  0  0  0  0  0  0  0  0  0  0
    0.0000    0.0000    0.0000 C   0  0  0  0  0  0  0  0  0  0  0  0
    0.0000    0.0000    0.0000 O   0  0  0  0  0  0  0  0  0  0  0  0
    0.0000    0.0000    0.0000 N   0  0  0  0  0  0  0  0  0  0  0  0
    0.0000    0.0000    0.0000 C   0  0  0  0  0  0  0  0  0  0  0  0
    0.0000    0.0000    0.0000 C   0  0  0  0  0  0  0  0  0  0  0  0
    0.0000    0.0000    0.0000 C   0  0  0  0  0  0  0  0  0  0  0  0
    0.0000    0.0000    0.0000 C   0  0  0  0  0  0  0  0  0  0  0  0
  1  2  1  0
  2  3  1  0
  3  4  2  0
  4  5  1  0
  5  6  2  0
  6  7  1  0
  7  8  2  0
  7  9  1  0
  9 10  1  0
 10 11  1  0
 11 12  1  0
 12 13  1  0
 12 14  1  0
 14 15  1  0
 15 16  1  0
 16 17  2  0
 14 18  1  0
 18 19  1  0
 19 20  1  0
  9 21  1  0
 21 22  2  0
 22 23  1  0
 23 24  2  0
 24 25  1  0
 25 26  2  0
 24 27  1  0
 27 28  2  0
 27 29  1  0
 29 30  1  0
 30 31  1  0
 31 32  1  0
 32 33  1  0
  8  3  1  0
 19 10  1  0
 26 21  1  0
 33 29  1  0
M  END
>  <pIC50>  (249) 
5.21

>  <ChEMBL_ID>  (249) 
CHEMBL101231

>  <document_journal>  (249) 
J. Med. Chem.

>  <bao_endpoint>  (249) 
BAO_0000190

>  <potential_duplicate>  (249) 
False

>  <uo_units>  (249) 
UO_0000065

>  <canonical_smiles>  (249) 
COc1cccc(c1)[C@H](N2C[C@@H](C)N(CC=C)C[C@@H]2C)c3ccc(cc3)C(=O)N4CCCC4

>  <parent_molecule_chembl_id>  (249) 
CHEMBL101231

>  <assay_type>  (249) 
B

>  <src_id>  (249) 
1

>  <ligand_efficiency>  (249) 
{u'le': u'0.22', u'bei': u'11.64', u'sei': u'14.46', u'lle': u'0.51'}

>  <standard_flag>  (249) 
True

>  <molecule_chembl_id>  (249) 
CHEMBL101231

>  <target_organism>  (249) 
Homo sapiens

>  <standard_units>  (249) 
nM

>  <record_id>  (249) 
186078

>  <document_chembl_id>  (249) 
CHEMBL1130143

>  <bao_format>  (249) 
BAO_0000357

>  <data_validity_description>  (249) 
None

>  <activity_id>  (249) 
1122022

>  <standard_type>  (249) 
IC50

>  <target_chembl_id>  (249) 
CHEMBL233

>  <data_validity_comment>  (249) 
None

>  <published_value>  (249) 
6186

>  <document_year>  (249) 
1997

>  <target_pref_name>  (249) 
Mu opioid receptor

>  <assay_chembl_id>  (249) 
CHEMBL754684

>  <standard_relation>  (249) 
=

>  <assay_description>  (249) 
Binding affinity for micro receptors by the inhibition of binding of [3H]DAMGO to Opioid receptor mu 1 in human cloned receptors.

>  <published_relation>  (249) 
=

>  <standard_value>  (249) 
6186

>  <qudt_units>  (249) 
http://www.openphacts.org/units/Nanomolar

>  <target_tax_id>  (249) 
9606

>  <bao_label>  (249) 
single protein format

>  <published_units>  (249) 
nM

>  <pchembl_value>  (249) 
5.21

>  <published_type>  (249) 
IC50

>  <activity_comment>  (249) 
None

$$$$

     RDKit          

 31 33  0  0  0  0  0  0  0  0999 V2000
    0.0000    0.0000    0.0000 C   0  0  0  0  0  0  0  0  0  0  0  0
    0.0000    0.0000    0.0000 O   0  0  0  0  0  0  0  0  0  0  0  0
    0.0000    0.0000    0.0000 C   0  0  0  0  0  0  0  0  0  0  0  0
    0.0000    0.0000    0.0000 C   0  0  0  0  0  0  0  0  0  0  0  0
    0.0000    0.0000    0.0000 C   0  0  0  0  0  0  0  0  0  0  0  0
    0.0000    0.0000    0.0000 C   0  0  0  0  0  0  0  0  0  0  0  0
    0.0000    0.0000    0.0000 C   0  0  0  0  0  0  0  0  0  0  0  0
    0.0000    0.0000    0.0000 C   0  0  0  0  0  0  0  0  0  0  0  0
    0.0000    0.0000    0.0000 C   0  0  0  0  0  0  0  0  0  0  0  0
    0.0000    0.0000    0.0000 N   0  0  0  0  0  0  0  0  0  0  0  0
    0.0000    0.0000    0.0000 C   0  0  0  0  0  0  0  0  0  0  0  0
    0.0000    0.0000    0.0000 C   0  0  0  0  0  0  0  0  0  0  0  0
    0.0000    0.0000    0.0000 C   0  0  0  0  0  0  0  0  0  0  0  0
    0.0000    0.0000    0.0000 N   0  0  0  0  0  0  0  0  0  0  0  0
    0.0000    0.0000    0.0000 C   0  0  0  0  0  0  0  0  0  0  0  0
    0.0000    0.0000    0.0000 C   0  0  0  0  0  0  0  0  0  0  0  0
    0.0000    0.0000    0.0000 C   0  0  0  0  0  0  0  0  0  0  0  0
    0.0000    0.0000    0.0000 C   0  0  0  0  0  0  0  0  0  0  0  0
    0.0000    0.0000    0.0000 C   0  0  0  0  0  0  0  0  0  0  0  0
    0.0000    0.0000    0.0000 C   0  0  0  0  0  0  0  0  0  0  0  0
    0.0000    0.0000    0.0000 C   0  0  0  0  0  0  0  0  0  0  0  0
    0.0000    0.0000    0.0000 C   0  0  0  0  0  0  0  0  0  0  0  0
    0.0000    0.0000    0.0000 C   0  0  0  0  0  0  0  0  0  0  0  0
    0.0000    0.0000    0.0000 C   0  0  0  0  0  0  0  0  0  0  0  0
    0.0000    0.0000    0.0000 C   0  0  0  0  0  0  0  0  0  0  0  0
    0.0000    0.0000    0.0000 C   0  0  0  0  0  0  0  0  0  0  0  0
    0.0000    0.0000    0.0000 C   0  0  0  0  0  0  0  0  0  0  0  0
    0.0000    0.0000    0.0000 O   0  0  0  0  0  0  0  0  0  0  0  0
    0.0000    0.0000    0.0000 N   0  0  0  0  0  0  0  0  0  0  0  0
    0.0000    0.0000    0.0000 C   0  0  0  0  0  0  0  0  0  0  0  0
    0.0000    0.0000    0.0000 C   0  0  0  0  0  0  0  0  0  0  0  0
  1  2  1  0
  2  3  1  0
  3  4  2  0
  4  5  1  0
  5  6  2  0
  6  7  1  0
  7  8  2  0
  7  9  1  0
  9 10  1  0
 10 11  1  0
 11 12  1  0
 12 13  1  0
 12 14  1  0
 14 15  1  0
 15 16  1  0
 16 17  2  0
 14 18  1  0
 18 19  1  0
 19 20  1  0
  9 21  1  0
 21 22  2  0
 22 23  1  0
 23 24  2  0
 24 25  1  0
 25 26  2  0
 24 27  1  0
 27 28  2  0
 27 29  1  0
 29 30  1  0
 29 31  1  0
  8  3  1  0
 19 10  1  0
 26 21  1  0
M  END
>  <pIC50>  (250) 
5.01

>  <ChEMBL_ID>  (250) 
CHEMBL316845

>  <document_journal>  (250) 
J. Med. Chem.

>  <bao_endpoint>  (250) 
BAO_0000190

>  <potential_duplicate>  (250) 
False

>  <uo_units>  (250) 
UO_0000065

>  <canonical_smiles>  (250) 
COc1cccc(c1)[C@H](N2C[C@@H](C)N(CC=C)C[C@@H]2C)c3ccc(cc3)C(=O)N(C)C

>  <parent_molecule_chembl_id>  (250) 
CHEMBL316845

>  <assay_type>  (250) 
B

>  <src_id>  (250) 
1

>  <ligand_efficiency>  (250) 
{u'le': u'0.22', u'bei': u'11.89', u'sei': u'13.92', u'lle': u'0.77'}

>  <standard_flag>  (250) 
True

>  <molecule_chembl_id>  (250) 
CHEMBL316845

>  <target_organism>  (250) 
Homo sapiens

>  <standard_units>  (250) 
nM

>  <record_id>  (250) 
186093

>  <document_chembl_id>  (250) 
CHEMBL1130143

>  <bao_format>  (250) 
BAO_0000357

>  <data_validity_description>  (250) 
None

>  <activity_id>  (250) 
1125700

>  <standard_type>  (250) 
IC50

>  <target_chembl_id>  (250) 
CHEMBL233

>  <data_validity_comment>  (250) 
None

>  <published_value>  (250) 
9724

>  <document_year>  (250) 
1997

>  <target_pref_name>  (250) 
Mu opioid receptor

>  <assay_chembl_id>  (250) 
CHEMBL754684

>  <standard_relation>  (250) 
=

>  <assay_description>  (250) 
Binding affinity for micro receptors by the inhibition of binding of [3H]DAMGO to Opioid receptor mu 1 in human cloned receptors.

>  <published_relation>  (250) 
=

>  <standard_value>  (250) 
9724

>  <qudt_units>  (250) 
http://www.openphacts.org/units/Nanomolar

>  <target_tax_id>  (250) 
9606

>  <bao_label>  (250) 
single protein format

>  <published_units>  (250) 
nM

>  <pchembl_value>  (250) 
5.01

>  <published_type>  (250) 
IC50

>  <activity_comment>  (250) 
None

$$$$

     RDKit          

 34 37  0  0  0  0  0  0  0  0999 V2000
    0.0000    0.0000    0.0000 C   0  0  0  0  0  0  0  0  0  0  0  0
    0.0000    0.0000    0.0000 O   0  0  0  0  0  0  0  0  0  0  0  0
    0.0000    0.0000    0.0000 C   0  0  0  0  0  0  0  0  0  0  0  0
    0.0000    0.0000    0.0000 C   0  0  0  0  0  0  0  0  0  0  0  0
    0.0000    0.0000    0.0000 C   0  0  0  0  0  0  0  0  0  0  0  0
    0.0000    0.0000    0.0000 C   0  0  0  0  0  0  0  0  0  0  0  0
    0.0000    0.0000    0.0000 C   0  0  0  0  0  0  0  0  0  0  0  0
    0.0000    0.0000    0.0000 C   0  0  0  0  0  0  0  0  0  0  0  0
    0.0000    0.0000    0.0000 C   0  0  0  0  0  0  0  0  0  0  0  0
    0.0000    0.0000    0.0000 N   0  0  0  0  0  0  0  0  0  0  0  0
    0.0000    0.0000    0.0000 C   0  0  0  0  0  0  0  0  0  0  0  0
    0.0000    0.0000    0.0000 C   0  0  0  0  0  0  0  0  0  0  0  0
    0.0000    0.0000    0.0000 C   0  0  0  0  0  0  0  0  0  0  0  0
    0.0000    0.0000    0.0000 N   0  0  0  0  0  0  0  0  0  0  0  0
    0.0000    0.0000    0.0000 C   0  0  0  0  0  0  0  0  0  0  0  0
    0.0000    0.0000    0.0000 C   0  0  0  0  0  0  0  0  0  0  0  0
    0.0000    0.0000    0.0000 C   0  0  0  0  0  0  0  0  0  0  0  0
    0.0000    0.0000    0.0000 C   0  0  0  0  0  0  0  0  0  0  0  0
    0.0000    0.0000    0.0000 C   0  0  0  0  0  0  0  0  0  0  0  0
    0.0000    0.0000    0.0000 C   0  0  0  0  0  0  0  0  0  0  0  0
    0.0000    0.0000    0.0000 C   0  0  0  0  0  0  0  0  0  0  0  0
    0.0000    0.0000    0.0000 C   0  0  0  0  0  0  0  0  0  0  0  0
    0.0000    0.0000    0.0000 C   0  0  0  0  0  0  0  0  0  0  0  0
    0.0000    0.0000    0.0000 C   0  0  0  0  0  0  0  0  0  0  0  0
    0.0000    0.0000    0.0000 C   0  0  0  0  0  0  0  0  0  0  0  0
    0.0000    0.0000    0.0000 C   0  0  0  0  0  0  0  0  0  0  0  0
    0.0000    0.0000    0.0000 C   0  0  0  0  0  0  0  0  0  0  0  0
    0.0000    0.0000    0.0000 O   0  0  0  0  0  0  0  0  0  0  0  0
    0.0000    0.0000    0.0000 N   0  0  0  0  0  0  0  0  0  0  0  0
    0.0000    0.0000    0.0000 C   0  0  0  0  0  0  0  0  0  0  0  0
    0.0000    0.0000    0.0000 C   0  0  0  0  0  0  0  0  0  0  0  0
    0.0000    0.0000    0.0000 C   0  0  0  0  0  0  0  0  0  0  0  0
    0.0000    0.0000    0.0000 C   0  0  0  0  0  0  0  0  0  0  0  0
    0.0000    0.0000    0.0000 C   0  0  0  0  0  0  0  0  0  0  0  0
  1  2  1  0
  2  3  1  0
  3  4  2  0
  4  5  1  0
  5  6  2  0
  6  7  1  0
  7  8  2  0
  7  9  1  0
  9 10  1  0
 10 11  1  0
 11 12  1  0
 12 13  1  0
 12 14  1  0
 14 15  1  0
 15 16  1  0
 16 17  2  0
 14 18  1  0
 18 19  1  0
 19 20  1  0
  9 21  1  0
 21 22  2  0
 22 23  1  0
 23 24  2  0
 24 25  1  0
 25 26  2  0
 24 27  1  0
 27 28  2  0
 27 29  1  0
 29 30  1  0
 30 31  1  0
 31 32  1  0
 32 33  1  0
 33 34  1  0
  8  3  1  0
 19 10  1  0
 26 21  1  0
 34 29  1  0
M  END
>  <pIC50>  (251) 
5.22

>  <ChEMBL_ID>  (251) 
CHEMBL98691

>  <document_journal>  (251) 
J. Med. Chem.

>  <bao_endpoint>  (251) 
BAO_0000190

>  <potential_duplicate>  (251) 
False

>  <uo_units>  (251) 
UO_0000065

>  <canonical_smiles>  (251) 
COc1cccc(c1)[C@H](N2C[C@@H](C)N(CC=C)C[C@@H]2C)c3ccc(cc3)C(=O)N4CCCCC4

>  <parent_molecule_chembl_id>  (251) 
CHEMBL98691

>  <assay_type>  (251) 
B

>  <src_id>  (251) 
1

>  <ligand_efficiency>  (251) 
{u'le': u'0.21', u'bei': u'11.31', u'sei': u'14.5', u'lle': u'0.06'}

>  <standard_flag>  (251) 
True

>  <molecule_chembl_id>  (251) 
CHEMBL98691

>  <target_organism>  (251) 
Homo sapiens

>  <standard_units>  (251) 
nM

>  <record_id>  (251) 
186077

>  <document_chembl_id>  (251) 
CHEMBL1130143

>  <bao_format>  (251) 
BAO_0000357

>  <data_validity_description>  (251) 
None

>  <activity_id>  (251) 
1125708

>  <standard_type>  (251) 
IC50

>  <target_chembl_id>  (251) 
CHEMBL233

>  <data_validity_comment>  (251) 
None

>  <published_value>  (251) 
5999

>  <document_year>  (251) 
1997

>  <target_pref_name>  (251) 
Mu opioid receptor

>  <assay_chembl_id>  (251) 
CHEMBL754684

>  <standard_relation>  (251) 
=

>  <assay_description>  (251) 
Binding affinity for micro receptors by the inhibition of binding of [3H]DAMGO to Opioid receptor mu 1 in human cloned receptors.

>  <published_relation>  (251) 
=

>  <standard_value>  (251) 
5999

>  <qudt_units>  (251) 
http://www.openphacts.org/units/Nanomolar

>  <target_tax_id>  (251) 
9606

>  <bao_label>  (251) 
single protein format

>  <published_units>  (251) 
nM

>  <pchembl_value>  (251) 
5.22

>  <published_type>  (251) 
IC50

>  <activity_comment>  (251) 
None

$$$$

     RDKit          

 35 37  0  0  0  0  0  0  0  0999 V2000
    0.0000    0.0000    0.0000 C   0  0  0  0  0  0  0  0  0  0  0  0
    0.0000    0.0000    0.0000 C   0  0  0  0  0  0  0  0  0  0  0  0
    0.0000    0.0000    0.0000 C   0  0  0  0  0  0  0  0  0  0  0  0
    0.0000    0.0000    0.0000 N   0  0  0  0  0  0  0  0  0  0  0  0
    0.0000    0.0000    0.0000 C   0  0  0  0  0  0  0  0  0  0  0  0
    0.0000    0.0000    0.0000 C   0  0  0  0  0  0  0  0  0  0  0  0
    0.0000    0.0000    0.0000 C   0  0  0  0  0  0  0  0  0  0  0  0
    0.0000    0.0000    0.0000 C   0  0  0  0  0  0  0  0  0  0  0  0
    0.0000    0.0000    0.0000 O   0  0  0  0  0  0  0  0  0  0  0  0
    0.0000    0.0000    0.0000 C   0  0  0  0  0  0  0  0  0  0  0  0
    0.0000    0.0000    0.0000 C   0  0  0  0  0  0  0  0  0  0  0  0
    0.0000    0.0000    0.0000 C   0  0  0  0  0  0  0  0  0  0  0  0
    0.0000    0.0000    0.0000 C   0  0  0  0  0  0  0  0  0  0  0  0
    0.0000    0.0000    0.0000 C   0  0  0  0  0  0  0  0  0  0  0  0
    0.0000    0.0000    0.0000 C   0  0  0  0  0  0  0  0  0  0  0  0
    0.0000    0.0000    0.0000 C   0  0  0  0  0  0  0  0  0  0  0  0
    0.0000    0.0000    0.0000 N   0  0  0  0  0  0  0  0  0  0  0  0
    0.0000    0.0000    0.0000 C   0  0  0  0  0  0  0  0  0  0  0  0
    0.0000    0.0000    0.0000 C   0  0  0  0  0  0  0  0  0  0  0  0
    0.0000    0.0000    0.0000 C   0  0  0  0  0  0  0  0  0  0  0  0
    0.0000    0.0000    0.0000 N   0  0  0  0  0  0  0  0  0  0  0  0
    0.0000    0.0000    0.0000 C   0  0  0  0  0  0  0  0  0  0  0  0
    0.0000    0.0000    0.0000 C   0  0  0  0  0  0  0  0  0  0  0  0
    0.0000    0.0000    0.0000 C   0  0  0  0  0  0  0  0  0  0  0  0
    0.0000    0.0000    0.0000 C   0  0  0  0  0  0  0  0  0  0  0  0
    0.0000    0.0000    0.0000 C   0  0  0  0  0  0  0  0  0  0  0  0
    0.0000    0.0000    0.0000 C   0  0  0  0  0  0  0  0  0  0  0  0
    0.0000    0.0000    0.0000 C   0  0  0  0  0  0  0  0  0  0  0  0
    0.0000    0.0000    0.0000 C   0  0  0  0  0  0  0  0  0  0  0  0
    0.0000    0.0000    0.0000 C   0  0  0  0  0  0  0  0  0  0  0  0
    0.0000    0.0000    0.0000 C   0  0  0  0  0  0  0  0  0  0  0  0
    0.0000    0.0000    0.0000 C   0  0  0  0  0  0  0  0  0  0  0  0
    0.0000    0.0000    0.0000 O   0  0  0  0  0  0  0  0  0  0  0  0
    0.0000    0.0000    0.0000 C   0  0  0  0  0  0  0  0  0  0  0  0
    0.0000    0.0000    0.0000 C   0  0  0  0  0  0  0  0  0  0  0  0
  1  2  1  0
  2  3  1  0
  3  4  1  0
  4  5  1  0
  5  6  1  0
  6  7  1  0
  4  8  1  0
  8  9  2  0
  8 10  1  0
 10 11  2  0
 11 12  1  0
 12 13  2  0
 13 14  1  0
 14 15  2  0
 13 16  1  0
 16 17  1  0
 17 18  1  0
 18 19  1  0
 19 20  1  0
 19 21  1  0
 21 22  1  0
 22 23  1  0
 23 24  2  0
 21 25  1  0
 25 26  1  0
 26 27  1  0
 16 28  1  0
 28 29  2  0
 29 30  1  0
 30 31  2  0
 31 32  1  0
 32 33  1  0
 33 34  1  0
 32 35  2  0
 15 10  1  0
 26 17  1  0
 35 28  1  0
M  END
>  <pIC50>  (252) 
5.22

>  <ChEMBL_ID>  (252) 
CHEMBL101316

>  <document_journal>  (252) 
J. Med. Chem.

>  <bao_endpoint>  (252) 
BAO_0000190

>  <potential_duplicate>  (252) 
False

>  <uo_units>  (252) 
UO_0000065

>  <canonical_smiles>  (252) 
CCCN(CCC)C(=O)c1ccc(cc1)[C@@H](N2C[C@@H](C)N(CC=C)C[C@@H]2C)c3cccc(OC)c3

>  <parent_molecule_chembl_id>  (252) 
CHEMBL101316

>  <assay_type>  (252) 
B

>  <src_id>  (252) 
1

>  <ligand_efficiency>  (252) 
{u'le': u'0.2', u'bei': u'10.92', u'sei': u'14.48', u'lle': u'-0.77'}

>  <standard_flag>  (252) 
True

>  <molecule_chembl_id>  (252) 
CHEMBL101316

>  <target_organism>  (252) 
Homo sapiens

>  <standard_units>  (252) 
nM

>  <record_id>  (252) 
186095

>  <document_chembl_id>  (252) 
CHEMBL1130143

>  <bao_format>  (252) 
BAO_0000357

>  <data_validity_description>  (252) 
None

>  <activity_id>  (252) 
1128172

>  <standard_type>  (252) 
IC50

>  <target_chembl_id>  (252) 
CHEMBL233

>  <data_validity_comment>  (252) 
None

>  <published_value>  (252) 
6083

>  <document_year>  (252) 
1997

>  <target_pref_name>  (252) 
Mu opioid receptor

>  <assay_chembl_id>  (252) 
CHEMBL754684

>  <standard_relation>  (252) 
=

>  <assay_description>  (252) 
Binding affinity for micro receptors by the inhibition of binding of [3H]DAMGO to Opioid receptor mu 1 in human cloned receptors.

>  <published_relation>  (252) 
=

>  <standard_value>  (252) 
6083

>  <qudt_units>  (252) 
http://www.openphacts.org/units/Nanomolar

>  <target_tax_id>  (252) 
9606

>  <bao_label>  (252) 
single protein format

>  <published_units>  (252) 
nM

>  <pchembl_value>  (252) 
5.22

>  <published_type>  (252) 
IC50

>  <activity_comment>  (252) 
None

$$$$

     RDKit          

 29 32  0  0  0  0  0  0  0  0999 V2000
    0.0000    0.0000    0.0000 C   0  0  0  0  0  0  0  0  0  0  0  0
    0.0000    0.0000    0.0000 O   0  0  0  0  0  0  0  0  0  0  0  0
    0.0000    0.0000    0.0000 C   0  0  0  0  0  0  0  0  0  0  0  0
    0.0000    0.0000    0.0000 O   0  0  0  0  0  0  0  0  0  0  0  0
    0.0000    0.0000    0.0000 C   0  0  0  0  0  0  0  0  0  0  0  0
    0.0000    0.0000    0.0000 N   0  0  0  0  0  0  0  0  0  0  0  0
    0.0000    0.0000    0.0000 C   0  0  0  0  0  0  0  0  0  0  0  0
    0.0000    0.0000    0.0000 O   0  0  0  0  0  0  0  0  0  0  0  0
    0.0000    0.0000    0.0000 C   0  0  0  0  0  0  0  0  0  0  0  0
    0.0000    0.0000    0.0000 C   0  0  0  0  0  0  0  0  0  0  0  0
    0.0000    0.0000    0.0000 C   0  0  0  0  0  0  0  0  0  0  0  0
    0.0000    0.0000    0.0000 N   0  0  0  0  0  0  0  0  0  0  0  0
    0.0000    0.0000    0.0000 C   0  0  0  0  0  0  0  0  0  0  0  0
    0.0000    0.0000    0.0000 C   0  0  0  0  0  0  0  0  0  0  0  0
    0.0000    0.0000    0.0000 C   0  0  0  0  0  0  0  0  0  0  0  0
    0.0000    0.0000    0.0000 C   0  0  0  0  0  0  0  0  0  0  0  0
    0.0000    0.0000    0.0000 C   0  0  0  0  0  0  0  0  0  0  0  0
    0.0000    0.0000    0.0000 C   0  0  0  0  0  0  0  0  0  0  0  0
    0.0000    0.0000    0.0000 C   0  0  0  0  0  0  0  0  0  0  0  0
    0.0000    0.0000    0.0000 C   0  0  0  0  0  0  0  0  0  0  0  0
    0.0000    0.0000    0.0000 C   0  0  0  0  0  0  0  0  0  0  0  0
    0.0000    0.0000    0.0000 C   0  0  0  0  0  0  0  0  0  0  0  0
    0.0000    0.0000    0.0000 C   0  0  0  0  0  0  0  0  0  0  0  0
    0.0000    0.0000    0.0000 C   0  0  0  0  0  0  0  0  0  0  0  0
    0.0000    0.0000    0.0000 C   0  0  0  0  0  0  0  0  0  0  0  0
    0.0000    0.0000    0.0000 C   0  0  0  0  0  0  0  0  0  0  0  0
    0.0000    0.0000    0.0000 C   0  0  0  0  0  0  0  0  0  0  0  0
    0.0000    0.0000    0.0000 C   0  0  0  0  0  0  0  0  0  0  0  0
    0.0000    0.0000    0.0000 C   0  0  0  0  0  0  0  0  0  0  0  0
  1  2  1  0
  2  3  1  0
  3  4  2  0
  3  5  1  0
  5  6  1  0
  6  7  1  0
  7  8  2  0
  7  9  1  0
  9 10  1  0
 10 11  1  0
 11 12  1  0
 12 13  1  0
 13 14  1  0
 14 15  1  0
 15 16  1  0
 16 17  1  0
 17 18  1  0
 18 19  1  0
 19 20  1  0
 20 21  1  0
 12 22  1  0
 22 23  1  0
  9 24  1  0
 24 25  2  0
 25 26  1  0
 26 27  2  0
 27 28  1  0
 28 29  2  0
 29  6  1  0
 23  9  1  0
 21 14  1  0
 29 24  1  0
M  END
>  <pIC50>  (253) 
5.45

>  <ChEMBL_ID>  (253) 
CHEMBL434944

>  <document_journal>  (253) 
Bioorg. Med. Chem. Lett.

>  <bao_endpoint>  (253) 
BAO_0000190

>  <potential_duplicate>  (253) 
False

>  <uo_units>  (253) 
UO_0000065

>  <canonical_smiles>  (253) 
COC(=O)CN1C(=O)C2(CCN(CC3CCCCCCC3)CC2)c4ccccc14

>  <parent_molecule_chembl_id>  (253) 
CHEMBL434944

>  <assay_type>  (253) 
B

>  <src_id>  (253) 
1

>  <ligand_efficiency>  (253) 
{u'le': u'0.26', u'bei': u'13.67', u'sei': u'10.93', u'lle': u'1.24'}

>  <standard_flag>  (253) 
True

>  <molecule_chembl_id>  (253) 
CHEMBL434944

>  <target_organism>  (253) 
Homo sapiens

>  <standard_units>  (253) 
nM

>  <record_id>  (253) 
404986

>  <document_chembl_id>  (253) 
CHEMBL1143642

>  <bao_format>  (253) 
BAO_0000219

>  <data_validity_description>  (253) 
None

>  <activity_id>  (253) 
1616785

>  <standard_type>  (253) 
IC50

>  <target_chembl_id>  (253) 
CHEMBL233

>  <data_validity_comment>  (253) 
None

>  <published_value>  (253) 
3.55

>  <document_year>  (253) 
2005

>  <target_pref_name>  (253) 
Mu opioid receptor

>  <assay_chembl_id>  (253) 
CHEMBL880418

>  <standard_relation>  (253) 
=

>  <assay_description>  (253) 
Binding affinity against human opioid receptor mu 1 expressed in HEK293 cells using [3H]DAMGO radioligand

>  <published_relation>  (253) 
=

>  <standard_value>  (253) 
3550

>  <qudt_units>  (253) 
http://www.openphacts.org/units/Nanomolar

>  <target_tax_id>  (253) 
9606

>  <bao_label>  (253) 
cell-based format

>  <published_units>  (253) 
uM

>  <pchembl_value>  (253) 
5.45

>  <published_type>  (253) 
IC50

>  <activity_comment>  (253) 
None

$$$$

     RDKit          

 30 33  0  0  0  0  0  0  0  0999 V2000
    0.0000    0.0000    0.0000 C   0  0  0  0  0  0  0  0  0  0  0  0
    0.0000    0.0000    0.0000 C   0  0  0  0  0  0  0  0  0  0  0  0
    0.0000    0.0000    0.0000 O   0  0  0  0  0  0  0  0  0  0  0  0
    0.0000    0.0000    0.0000 O   0  0  0  0  0  0  0  0  0  0  0  0
    0.0000    0.0000    0.0000 C   0  0  0  0  0  0  0  0  0  0  0  0
    0.0000    0.0000    0.0000 C   0  0  0  0  0  0  0  0  0  0  0  0
    0.0000    0.0000    0.0000 N   0  0  0  0  0  0  0  0  0  0  0  0
    0.0000    0.0000    0.0000 C   0  0  0  0  0  0  0  0  0  0  0  0
    0.0000    0.0000    0.0000 O   0  0  0  0  0  0  0  0  0  0  0  0
    0.0000    0.0000    0.0000 C   0  0  0  0  0  0  0  0  0  0  0  0
    0.0000    0.0000    0.0000 C   0  0  0  0  0  0  0  0  0  0  0  0
    0.0000    0.0000    0.0000 C   0  0  0  0  0  0  0  0  0  0  0  0
    0.0000    0.0000    0.0000 N   0  0  0  0  0  0  0  0  0  0  0  0
    0.0000    0.0000    0.0000 C   0  0  0  0  0  0  0  0  0  0  0  0
    0.0000    0.0000    0.0000 C   0  0  0  0  0  0  0  0  0  0  0  0
    0.0000    0.0000    0.0000 C   0  0  0  0  0  0  0  0  0  0  0  0
    0.0000    0.0000    0.0000 C   0  0  0  0  0  0  0  0  0  0  0  0
    0.0000    0.0000    0.0000 C   0  0  0  0  0  0  0  0  0  0  0  0
    0.0000    0.0000    0.0000 C   0  0  0  0  0  0  0  0  0  0  0  0
    0.0000    0.0000    0.0000 C   0  0  0  0  0  0  0  0  0  0  0  0
    0.0000    0.0000    0.0000 C   0  0  0  0  0  0  0  0  0  0  0  0
    0.0000    0.0000    0.0000 C   0  0  0  0  0  0  0  0  0  0  0  0
    0.0000    0.0000    0.0000 C   0  0  0  0  0  0  0  0  0  0  0  0
    0.0000    0.0000    0.0000 C   0  0  0  0  0  0  0  0  0  0  0  0
    0.0000    0.0000    0.0000 C   0  0  0  0  0  0  0  0  0  0  0  0
    0.0000    0.0000    0.0000 C   0  0  0  0  0  0  0  0  0  0  0  0
    0.0000    0.0000    0.0000 C   0  0  0  0  0  0  0  0  0  0  0  0
    0.0000    0.0000    0.0000 C   0  0  0  0  0  0  0  0  0  0  0  0
    0.0000    0.0000    0.0000 C   0  0  0  0  0  0  0  0  0  0  0  0
    0.0000    0.0000    0.0000 C   0  0  0  0  0  0  0  0  0  0  0  0
  1  2  1  0
  2  3  2  0
  2  4  1  0
  4  5  1  0
  5  6  1  0
  6  7  1  0
  7  8  1  0
  8  9  2  0
  8 10  1  0
 10 11  1  0
 11 12  1  0
 12 13  1  0
 13 14  1  0
 14 15  1  0
 15 16  1  0
 16 17  1  0
 17 18  1  0
 18 19  1  0
 19 20  1  0
 20 21  1  0
 21 22  1  0
 13 23  1  0
 23 24  1  0
 10 25  1  0
 25 26  2  0
 26 27  1  0
 27 28  2  0
 28 29  1  0
 29 30  2  0
 30  7  1  0
 24 10  1  0
 22 15  1  0
 30 25  1  0
M  END
>  <pIC50>  (254) 
5.85

>  <ChEMBL_ID>  (254) 
CHEMBL373190

>  <document_journal>  (254) 
Bioorg. Med. Chem. Lett.

>  <bao_endpoint>  (254) 
BAO_0000190

>  <potential_duplicate>  (254) 
False

>  <uo_units>  (254) 
UO_0000065

>  <canonical_smiles>  (254) 
CC(=O)OCCN1C(=O)C2(CCN(CC3CCCCCCC3)CC2)c4ccccc14

>  <parent_molecule_chembl_id>  (254) 
CHEMBL373190

>  <assay_type>  (254) 
B

>  <src_id>  (254) 
1

>  <ligand_efficiency>  (254) 
{u'le': u'0.27', u'bei': u'14.18', u'sei': u'11.74', u'lle': u'1.51'}

>  <standard_flag>  (254) 
True

>  <molecule_chembl_id>  (254) 
CHEMBL373190

>  <target_organism>  (254) 
Homo sapiens

>  <standard_units>  (254) 
nM

>  <record_id>  (254) 
405007

>  <document_chembl_id>  (254) 
CHEMBL1143642

>  <bao_format>  (254) 
BAO_0000219

>  <data_validity_description>  (254) 
None

>  <activity_id>  (254) 
1616812

>  <standard_type>  (254) 
IC50

>  <target_chembl_id>  (254) 
CHEMBL233

>  <data_validity_comment>  (254) 
None

>  <published_value>  (254) 
1.41

>  <document_year>  (254) 
2005

>  <target_pref_name>  (254) 
Mu opioid receptor

>  <assay_chembl_id>  (254) 
CHEMBL880418

>  <standard_relation>  (254) 
=

>  <assay_description>  (254) 
Binding affinity against human opioid receptor mu 1 expressed in HEK293 cells using [3H]DAMGO radioligand

>  <published_relation>  (254) 
=

>  <standard_value>  (254) 
1410

>  <qudt_units>  (254) 
http://www.openphacts.org/units/Nanomolar

>  <target_tax_id>  (254) 
9606

>  <bao_label>  (254) 
cell-based format

>  <published_units>  (254) 
uM

>  <pchembl_value>  (254) 
5.85

>  <published_type>  (254) 
IC50

>  <activity_comment>  (254) 
None

$$$$

     RDKit          

 27 30  0  0  0  0  0  0  0  0999 V2000
    0.0000    0.0000    0.0000 O   0  0  0  0  0  0  0  0  0  0  0  0
    0.0000    0.0000    0.0000 C   0  0  0  0  0  0  0  0  0  0  0  0
    0.0000    0.0000    0.0000 C   0  0  0  0  0  0  0  0  0  0  0  0
    0.0000    0.0000    0.0000 N   0  0  0  0  0  0  0  0  0  0  0  0
    0.0000    0.0000    0.0000 C   0  0  0  0  0  0  0  0  0  0  0  0
    0.0000    0.0000    0.0000 O   0  0  0  0  0  0  0  0  0  0  0  0
    0.0000    0.0000    0.0000 C   0  0  0  0  0  0  0  0  0  0  0  0
    0.0000    0.0000    0.0000 C   0  0  0  0  0  0  0  0  0  0  0  0
    0.0000    0.0000    0.0000 C   0  0  0  0  0  0  0  0  0  0  0  0
    0.0000    0.0000    0.0000 N   0  0  0  0  0  0  0  0  0  0  0  0
    0.0000    0.0000    0.0000 C   0  0  0  0  0  0  0  0  0  0  0  0
    0.0000    0.0000    0.0000 C   0  0  0  0  0  0  0  0  0  0  0  0
    0.0000    0.0000    0.0000 C   0  0  0  0  0  0  0  0  0  0  0  0
    0.0000    0.0000    0.0000 C   0  0  0  0  0  0  0  0  0  0  0  0
    0.0000    0.0000    0.0000 C   0  0  0  0  0  0  0  0  0  0  0  0
    0.0000    0.0000    0.0000 C   0  0  0  0  0  0  0  0  0  0  0  0
    0.0000    0.0000    0.0000 C   0  0  0  0  0  0  0  0  0  0  0  0
    0.0000    0.0000    0.0000 C   0  0  0  0  0  0  0  0  0  0  0  0
    0.0000    0.0000    0.0000 C   0  0  0  0  0  0  0  0  0  0  0  0
    0.0000    0.0000    0.0000 C   0  0  0  0  0  0  0  0  0  0  0  0
    0.0000    0.0000    0.0000 C   0  0  0  0  0  0  0  0  0  0  0  0
    0.0000    0.0000    0.0000 C   0  0  0  0  0  0  0  0  0  0  0  0
    0.0000    0.0000    0.0000 C   0  0  0  0  0  0  0  0  0  0  0  0
    0.0000    0.0000    0.0000 C   0  0  0  0  0  0  0  0  0  0  0  0
    0.0000    0.0000    0.0000 C   0  0  0  0  0  0  0  0  0  0  0  0
    0.0000    0.0000    0.0000 C   0  0  0  0  0  0  0  0  0  0  0  0
    0.0000    0.0000    0.0000 C   0  0  0  0  0  0  0  0  0  0  0  0
  1  2  1  0
  2  3  1  0
  3  4  1  0
  4  5  1  0
  5  6  2  0
  5  7  1  0
  7  8  1  0
  8  9  1  0
  9 10  1  0
 10 11  1  0
 11 12  1  0
 12 13  1  0
 13 14  1  0
 14 15  1  0
 15 16  1  0
 16 17  1  0
 17 18  1  0
 18 19  1  0
 10 20  1  0
 20 21  1  0
  7 22  1  0
 22 23  2  0
 23 24  1  0
 24 25  2  0
 25 26  1  0
 26 27  2  0
 27  4  1  0
 21  7  1  0
 19 12  1  0
 27 22  1  0
M  END
>  <pIC50>  (255) 
5.77

>  <ChEMBL_ID>  (255) 
CHEMBL380603

>  <document_journal>  (255) 
Bioorg. Med. Chem. Lett.

>  <bao_endpoint>  (255) 
BAO_0000190

>  <potential_duplicate>  (255) 
False

>  <uo_units>  (255) 
UO_0000065

>  <canonical_smiles>  (255) 
OCCN1C(=O)C2(CCN(CC3CCCCCCC3)CC2)c4ccccc14

>  <parent_molecule_chembl_id>  (255) 
CHEMBL380603

>  <assay_type>  (255) 
B

>  <src_id>  (255) 
1

>  <ligand_efficiency>  (255) 
{u'le': u'0.29', u'bei': u'15.58', u'sei': u'13.18', u'lle': u'1.81'}

>  <standard_flag>  (255) 
True

>  <molecule_chembl_id>  (255) 
CHEMBL380603

>  <target_organism>  (255) 
Homo sapiens

>  <standard_units>  (255) 
nM

>  <record_id>  (255) 
405009

>  <document_chembl_id>  (255) 
CHEMBL1143642

>  <bao_format>  (255) 
BAO_0000219

>  <data_validity_description>  (255) 
None

>  <activity_id>  (255) 
1616822

>  <standard_type>  (255) 
IC50

>  <target_chembl_id>  (255) 
CHEMBL233

>  <data_validity_comment>  (255) 
None

>  <published_value>  (255) 
1.69

>  <document_year>  (255) 
2005

>  <target_pref_name>  (255) 
Mu opioid receptor

>  <assay_chembl_id>  (255) 
CHEMBL880418

>  <standard_relation>  (255) 
=

>  <assay_description>  (255) 
Binding affinity against human opioid receptor mu 1 expressed in HEK293 cells using [3H]DAMGO radioligand

>  <published_relation>  (255) 
=

>  <standard_value>  (255) 
1690

>  <qudt_units>  (255) 
http://www.openphacts.org/units/Nanomolar

>  <target_tax_id>  (255) 
9606

>  <bao_label>  (255) 
cell-based format

>  <published_units>  (255) 
uM

>  <pchembl_value>  (255) 
5.77

>  <published_type>  (255) 
IC50

>  <activity_comment>  (255) 
None

$$$$

     RDKit          

 24 27  0  0  0  0  0  0  0  0999 V2000
    0.0000    0.0000    0.0000 O   0  0  0  0  0  0  0  0  0  0  0  0
    0.0000    0.0000    0.0000 C   0  0  0  0  0  0  0  0  0  0  0  0
    0.0000    0.0000    0.0000 N   0  0  0  0  0  0  0  0  0  0  0  0
    0.0000    0.0000    0.0000 C   0  0  0  0  0  0  0  0  0  0  0  0
    0.0000    0.0000    0.0000 C   0  0  0  0  0  0  0  0  0  0  0  0
    0.0000    0.0000    0.0000 C   0  0  0  0  0  0  0  0  0  0  0  0
    0.0000    0.0000    0.0000 C   0  0  0  0  0  0  0  0  0  0  0  0
    0.0000    0.0000    0.0000 C   0  0  0  0  0  0  0  0  0  0  0  0
    0.0000    0.0000    0.0000 C   0  0  0  0  0  0  0  0  0  0  0  0
    0.0000    0.0000    0.0000 C   0  0  0  0  0  0  0  0  0  0  0  0
    0.0000    0.0000    0.0000 C   0  0  0  0  0  0  0  0  0  0  0  0
    0.0000    0.0000    0.0000 C   0  0  0  0  0  0  0  0  0  0  0  0
    0.0000    0.0000    0.0000 N   0  0  0  0  0  0  0  0  0  0  0  0
    0.0000    0.0000    0.0000 C   0  0  0  0  0  0  0  0  0  0  0  0
    0.0000    0.0000    0.0000 C   0  0  0  0  0  0  0  0  0  0  0  0
    0.0000    0.0000    0.0000 C   0  0  0  0  0  0  0  0  0  0  0  0
    0.0000    0.0000    0.0000 C   0  0  0  0  0  0  0  0  0  0  0  0
    0.0000    0.0000    0.0000 C   0  0  0  0  0  0  0  0  0  0  0  0
    0.0000    0.0000    0.0000 C   0  0  0  0  0  0  0  0  0  0  0  0
    0.0000    0.0000    0.0000 C   0  0  0  0  0  0  0  0  0  0  0  0
    0.0000    0.0000    0.0000 C   0  0  0  0  0  0  0  0  0  0  0  0
    0.0000    0.0000    0.0000 C   0  0  0  0  0  0  0  0  0  0  0  0
    0.0000    0.0000    0.0000 C   0  0  0  0  0  0  0  0  0  0  0  0
    0.0000    0.0000    0.0000 C   0  0  0  0  0  0  0  0  0  0  0  0
  1  2  2  0
  2  3  1  0
  3  4  1  0
  4  5  2  0
  5  6  1  0
  6  7  2  0
  7  8  1  0
  8  9  2  0
  9 10  1  0
 10 11  1  0
 11 12  1  0
 12 13  1  0
 13 14  1  0
 14 15  1  0
 15 16  1  0
 16 17  1  0
 17 18  1  0
 18 19  1  0
 19 20  1  0
 20 21  1  0
 21 22  1  0
 13 23  1  0
 23 24  1  0
 10  2  1  0
  9  4  1  0
 24 10  1  0
 22 15  1  0
M  END
>  <pIC50>  (256) 
5.96

>  <ChEMBL_ID>  (256) 
CHEMBL199248

>  <document_journal>  (256) 
Bioorg. Med. Chem. Lett.

>  <bao_endpoint>  (256) 
BAO_0000190

>  <potential_duplicate>  (256) 
False

>  <uo_units>  (256) 
UO_0000065

>  <canonical_smiles>  (256) 
O=C1Nc2ccccc2C13CCN(CC4CCCCCCC4)CC3

>  <parent_molecule_chembl_id>  (256) 
CHEMBL199248

>  <assay_type>  (256) 
B

>  <src_id>  (256) 
1

>  <ligand_efficiency>  (256) 
{u'le': u'0.34', u'bei': u'18.24', u'sei': u'18.41', u'lle': u'1.65'}

>  <standard_flag>  (256) 
True

>  <molecule_chembl_id>  (256) 
CHEMBL199248

>  <target_organism>  (256) 
Homo sapiens

>  <standard_units>  (256) 
nM

>  <record_id>  (256) 
405011

>  <document_chembl_id>  (256) 
CHEMBL1143642

>  <bao_format>  (256) 
BAO_0000219

>  <data_validity_description>  (256) 
None

>  <activity_id>  (256) 
1616832

>  <standard_type>  (256) 
IC50

>  <target_chembl_id>  (256) 
CHEMBL233

>  <data_validity_comment>  (256) 
None

>  <published_value>  (256) 
1.11

>  <document_year>  (256) 
2005

>  <target_pref_name>  (256) 
Mu opioid receptor

>  <assay_chembl_id>  (256) 
CHEMBL880418

>  <standard_relation>  (256) 
=

>  <assay_description>  (256) 
Binding affinity against human opioid receptor mu 1 expressed in HEK293 cells using [3H]DAMGO radioligand

>  <published_relation>  (256) 
=

>  <standard_value>  (256) 
1110

>  <qudt_units>  (256) 
http://www.openphacts.org/units/Nanomolar

>  <target_tax_id>  (256) 
9606

>  <bao_label>  (256) 
cell-based format

>  <published_units>  (256) 
uM

>  <pchembl_value>  (256) 
5.96

>  <published_type>  (256) 
IC50

>  <activity_comment>  (256) 
None

$$$$

     RDKit          

 31 35  0  0  0  0  0  0  0  0999 V2000
    0.0000    0.0000    0.0000 O   0  0  0  0  0  0  0  0  0  0  0  0
    0.0000    0.0000    0.0000 C   0  0  0  0  0  0  0  0  0  0  0  0
    0.0000    0.0000    0.0000 N   0  0  0  0  0  0  0  0  0  0  0  0
    0.0000    0.0000    0.0000 C   0  0  0  0  0  0  0  0  0  0  0  0
    0.0000    0.0000    0.0000 C   0  0  0  0  0  0  0  0  0  0  0  0
    0.0000    0.0000    0.0000 C   0  0  0  0  0  0  0  0  0  0  0  0
    0.0000    0.0000    0.0000 C   0  0  0  0  0  0  0  0  0  0  0  0
    0.0000    0.0000    0.0000 C   0  0  0  0  0  0  0  0  0  0  0  0
    0.0000    0.0000    0.0000 C   0  0  0  0  0  0  0  0  0  0  0  0
    0.0000    0.0000    0.0000 C   0  0  0  0  0  0  0  0  0  0  0  0
    0.0000    0.0000    0.0000 C   0  0  0  0  0  0  0  0  0  0  0  0
    0.0000    0.0000    0.0000 C   0  0  0  0  0  0  0  0  0  0  0  0
    0.0000    0.0000    0.0000 C   0  0  0  0  0  0  0  0  0  0  0  0
    0.0000    0.0000    0.0000 C   0  0  0  0  0  0  0  0  0  0  0  0
    0.0000    0.0000    0.0000 C   0  0  0  0  0  0  0  0  0  0  0  0
    0.0000    0.0000    0.0000 C   0  0  0  0  0  0  0  0  0  0  0  0
    0.0000    0.0000    0.0000 C   0  0  0  0  0  0  0  0  0  0  0  0
    0.0000    0.0000    0.0000 C   0  0  0  0  0  0  0  0  0  0  0  0
    0.0000    0.0000    0.0000 C   0  0  0  0  0  0  0  0  0  0  0  0
    0.0000    0.0000    0.0000 N   0  0  0  0  0  0  0  0  0  0  0  0
    0.0000    0.0000    0.0000 C   0  0  0  0  0  0  0  0  0  0  0  0
    0.0000    0.0000    0.0000 C   0  0  0  0  0  0  0  0  0  0  0  0
    0.0000    0.0000    0.0000 C   0  0  0  0  0  0  0  0  0  0  0  0
    0.0000    0.0000    0.0000 C   0  0  0  0  0  0  0  0  0  0  0  0
    0.0000    0.0000    0.0000 C   0  0  0  0  0  0  0  0  0  0  0  0
    0.0000    0.0000    0.0000 C   0  0  0  0  0  0  0  0  0  0  0  0
    0.0000    0.0000    0.0000 C   0  0  0  0  0  0  0  0  0  0  0  0
    0.0000    0.0000    0.0000 C   0  0  0  0  0  0  0  0  0  0  0  0
    0.0000    0.0000    0.0000 C   0  0  0  0  0  0  0  0  0  0  0  0
    0.0000    0.0000    0.0000 C   0  0  0  0  0  0  0  0  0  0  0  0
    0.0000    0.0000    0.0000 C   0  0  0  0  0  0  0  0  0  0  0  0
  1  2  2  0
  2  3  1  0
  3  4  1  0
  4  5  1  0
  5  6  2  0
  6  7  1  0
  7  8  2  0
  8  9  1  0
  9 10  2  0
  3 11  1  0
 11 12  2  0
 12 13  1  0
 13 14  2  0
 14 15  1  0
 15 16  2  0
 16 17  1  0
 17 18  1  0
 18 19  1  0
 19 20  1  0
 20 21  1  0
 21 22  1  0
 22 23  1  0
 23 24  1  0
 24 25  1  0
 25 26  1  0
 26 27  1  0
 27 28  1  0
 28 29  1  0
 20 30  1  0
 30 31  1  0
 17  2  1  0
 10  5  1  0
 16 11  1  0
 31 17  1  0
 29 22  1  0
M  END
>  <pIC50>  (257) 
6.02

>  <ChEMBL_ID>  (257) 
CHEMBL372184

>  <document_journal>  (257) 
Bioorg. Med. Chem. Lett.

>  <bao_endpoint>  (257) 
BAO_0000190

>  <potential_duplicate>  (257) 
False

>  <uo_units>  (257) 
UO_0000065

>  <canonical_smiles>  (257) 
O=C1N(Cc2ccccc2)c3ccccc3C14CCN(CC5CCCCCCC5)CC4

>  <parent_molecule_chembl_id>  (257) 
CHEMBL372184

>  <assay_type>  (257) 
B

>  <src_id>  (257) 
1

>  <ligand_efficiency>  (257) 
{u'le': u'0.27', u'bei': u'14.44', u'sei': u'25.55', u'lle': u'-0.07'}

>  <standard_flag>  (257) 
True

>  <molecule_chembl_id>  (257) 
CHEMBL372184

>  <target_organism>  (257) 
Homo sapiens

>  <standard_units>  (257) 
nM

>  <record_id>  (257) 
405014

>  <document_chembl_id>  (257) 
CHEMBL1143642

>  <bao_format>  (257) 
BAO_0000219

>  <data_validity_description>  (257) 
None

>  <activity_id>  (257) 
1616843

>  <standard_type>  (257) 
IC50

>  <target_chembl_id>  (257) 
CHEMBL233

>  <data_validity_comment>  (257) 
None

>  <published_value>  (257) 
0.96

>  <document_year>  (257) 
2005

>  <target_pref_name>  (257) 
Mu opioid receptor

>  <assay_chembl_id>  (257) 
CHEMBL880418

>  <standard_relation>  (257) 
=

>  <assay_description>  (257) 
Binding affinity against human opioid receptor mu 1 expressed in HEK293 cells using [3H]DAMGO radioligand

>  <published_relation>  (257) 
=

>  <standard_value>  (257) 
960

>  <qudt_units>  (257) 
http://www.openphacts.org/units/Nanomolar

>  <target_tax_id>  (257) 
9606

>  <bao_label>  (257) 
cell-based format

>  <published_units>  (257) 
uM

>  <pchembl_value>  (257) 
6.02

>  <published_type>  (257) 
IC50

>  <activity_comment>  (257) 
None

$$$$

     RDKit          

 28 32  0  0  0  0  0  0  0  0999 V2000
    0.0000    0.0000    0.0000 O   0  0  0  0  0  0  0  0  0  0  0  0
    0.0000    0.0000    0.0000 C   0  0  0  0  0  0  0  0  0  0  0  0
    0.0000    0.0000    0.0000 N   0  0  0  0  0  0  0  0  0  0  0  0
    0.0000    0.0000    0.0000 C   0  0  0  0  0  0  0  0  0  0  0  0
    0.0000    0.0000    0.0000 C   0  0  0  0  0  0  0  0  0  0  0  0
    0.0000    0.0000    0.0000 C   0  0  0  0  0  0  0  0  0  0  0  0
    0.0000    0.0000    0.0000 O   0  0  0  0  0  0  0  0  0  0  0  0
    0.0000    0.0000    0.0000 C   0  0  0  0  0  0  0  0  0  0  0  0
    0.0000    0.0000    0.0000 C   0  0  0  0  0  0  0  0  0  0  0  0
    0.0000    0.0000    0.0000 C   0  0  0  0  0  0  0  0  0  0  0  0
    0.0000    0.0000    0.0000 C   0  0  0  0  0  0  0  0  0  0  0  0
    0.0000    0.0000    0.0000 C   0  0  0  0  0  0  0  0  0  0  0  0
    0.0000    0.0000    0.0000 C   0  0  0  0  0  0  0  0  0  0  0  0
    0.0000    0.0000    0.0000 C   0  0  0  0  0  0  0  0  0  0  0  0
    0.0000    0.0000    0.0000 C   0  0  0  0  0  0  0  0  0  0  0  0
    0.0000    0.0000    0.0000 C   0  0  0  0  0  0  0  0  0  0  0  0
    0.0000    0.0000    0.0000 N   0  0  0  0  0  0  0  0  0  0  0  0
    0.0000    0.0000    0.0000 C   0  0  0  0  0  0  0  0  0  0  0  0
    0.0000    0.0000    0.0000 C   0  0  0  0  0  0  0  0  0  0  0  0
    0.0000    0.0000    0.0000 C   0  0  0  0  0  0  0  0  0  0  0  0
    0.0000    0.0000    0.0000 C   0  0  0  0  0  0  0  0  0  0  0  0
    0.0000    0.0000    0.0000 C   0  0  0  0  0  0  0  0  0  0  0  0
    0.0000    0.0000    0.0000 C   0  0  0  0  0  0  0  0  0  0  0  0
    0.0000    0.0000    0.0000 C   0  0  0  0  0  0  0  0  0  0  0  0
    0.0000    0.0000    0.0000 C   0  0  0  0  0  0  0  0  0  0  0  0
    0.0000    0.0000    0.0000 C   0  0  0  0  0  0  0  0  0  0  0  0
    0.0000    0.0000    0.0000 C   0  0  0  0  0  0  0  0  0  0  0  0
    0.0000    0.0000    0.0000 C   0  0  0  0  0  0  0  0  0  0  0  0
  1  2  2  0
  2  3  1  0
  3  4  1  0
  4  5  1  0
  5  6  1  0
  6  7  1  0
  3  8  1  0
  8  9  2  0
  9 10  1  0
 10 11  2  0
 11 12  1  0
 12 13  2  0
 13 14  1  0
 14 15  1  0
 15 16  1  0
 16 17  1  0
 17 18  1  0
 18 19  1  0
 19 20  1  0
 20 21  1  0
 21 22  1  0
 22 23  1  0
 23 24  1  0
 24 25  1  0
 25 26  1  0
 17 27  1  0
 27 28  1  0
 14  2  1  0
  7  5  1  0
 13  8  1  0
 28 14  1  0
 26 19  1  0
M  END
>  <pIC50>  (258) 
6.08

>  <ChEMBL_ID>  (258) 
CHEMBL198867

>  <document_journal>  (258) 
Bioorg. Med. Chem. Lett.

>  <bao_endpoint>  (258) 
BAO_0000190

>  <potential_duplicate>  (258) 
False

>  <uo_units>  (258) 
UO_0000065

>  <canonical_smiles>  (258) 
O=C1N(CC2CO2)c3ccccc3C14CCN(CC5CCCCCCC5)CC4

>  <parent_molecule_chembl_id>  (258) 
CHEMBL198867

>  <assay_type>  (258) 
B

>  <src_id>  (258) 
1

>  <ligand_efficiency>  (258) 
{u'le': u'0.3', u'bei': u'15.88', u'sei': u'16.84', u'lle': u'1.86'}

>  <standard_flag>  (258) 
True

>  <molecule_chembl_id>  (258) 
CHEMBL198867

>  <target_organism>  (258) 
Homo sapiens

>  <standard_units>  (258) 
nM

>  <record_id>  (258) 
405015

>  <document_chembl_id>  (258) 
CHEMBL1143642

>  <bao_format>  (258) 
BAO_0000219

>  <data_validity_description>  (258) 
None

>  <activity_id>  (258) 
1616848

>  <standard_type>  (258) 
IC50

>  <target_chembl_id>  (258) 
CHEMBL233

>  <data_validity_comment>  (258) 
None

>  <published_value>  (258) 
0.84

>  <document_year>  (258) 
2005

>  <target_pref_name>  (258) 
Mu opioid receptor

>  <assay_chembl_id>  (258) 
CHEMBL880418

>  <standard_relation>  (258) 
=

>  <assay_description>  (258) 
Binding affinity against human opioid receptor mu 1 expressed in HEK293 cells using [3H]DAMGO radioligand

>  <published_relation>  (258) 
=

>  <standard_value>  (258) 
840

>  <qudt_units>  (258) 
http://www.openphacts.org/units/Nanomolar

>  <target_tax_id>  (258) 
9606

>  <bao_label>  (258) 
cell-based format

>  <published_units>  (258) 
uM

>  <pchembl_value>  (258) 
6.08

>  <published_type>  (258) 
IC50

>  <activity_comment>  (258) 
None

$$$$

     RDKit          

 37 41  0  0  0  0  0  0  0  0999 V2000
    0.0000    0.0000    0.0000 O   0  0  0  0  0  0  0  0  0  0  0  0
    0.0000    0.0000    0.0000 C   0  0  0  0  0  0  0  0  0  0  0  0
    0.0000    0.0000    0.0000 C   0  0  0  0  0  0  0  0  0  0  0  0
    0.0000    0.0000    0.0000 N   0  0  0  0  0  0  0  0  0  0  0  0
    0.0000    0.0000    0.0000 C   0  0  0  0  0  0  0  0  0  0  0  0
    0.0000    0.0000    0.0000 C   0  0  0  0  0  0  0  0  0  0  0  0
    0.0000    0.0000    0.0000 N   0  0  0  0  0  0  0  0  0  0  0  0
    0.0000    0.0000    0.0000 C   0  0  0  0  0  0  0  0  0  0  0  0
    0.0000    0.0000    0.0000 C   0  0  0  0  0  0  0  0  0  0  0  0
    0.0000    0.0000    0.0000 O   0  0  0  0  0  0  0  0  0  0  0  0
    0.0000    0.0000    0.0000 C   0  0  0  0  0  0  0  0  0  0  0  0
    0.0000    0.0000    0.0000 C   0  0  0  0  0  0  0  0  0  0  0  0
    0.0000    0.0000    0.0000 C   0  0  0  0  0  0  0  0  0  0  0  0
    0.0000    0.0000    0.0000 N   0  0  0  0  0  0  0  0  0  0  0  0
    0.0000    0.0000    0.0000 C   0  0  0  0  0  0  0  0  0  0  0  0
    0.0000    0.0000    0.0000 O   0  0  0  0  0  0  0  0  0  0  0  0
    0.0000    0.0000    0.0000 C   0  0  0  0  0  0  0  0  0  0  0  0
    0.0000    0.0000    0.0000 C   0  0  0  0  0  0  0  0  0  0  0  0
    0.0000    0.0000    0.0000 C   0  0  0  0  0  0  0  0  0  0  0  0
    0.0000    0.0000    0.0000 N   0  0  0  0  0  0  0  0  0  0  0  0
    0.0000    0.0000    0.0000 C   0  0  0  0  0  0  0  0  0  0  0  0
    0.0000    0.0000    0.0000 C   0  0  0  0  0  0  0  0  0  0  0  0
    0.0000    0.0000    0.0000 C   0  0  0  0  0  0  0  0  0  0  0  0
    0.0000    0.0000    0.0000 C   0  0  0  0  0  0  0  0  0  0  0  0
    0.0000    0.0000    0.0000 C   0  0  0  0  0  0  0  0  0  0  0  0
    0.0000    0.0000    0.0000 C   0  0  0  0  0  0  0  0  0  0  0  0
    0.0000    0.0000    0.0000 C   0  0  0  0  0  0  0  0  0  0  0  0
    0.0000    0.0000    0.0000 C   0  0  0  0  0  0  0  0  0  0  0  0
    0.0000    0.0000    0.0000 C   0  0  0  0  0  0  0  0  0  0  0  0
    0.0000    0.0000    0.0000 C   0  0  0  0  0  0  0  0  0  0  0  0
    0.0000    0.0000    0.0000 C   0  0  0  0  0  0  0  0  0  0  0  0
    0.0000    0.0000    0.0000 C   0  0  0  0  0  0  0  0  0  0  0  0
    0.0000    0.0000    0.0000 C   0  0  0  0  0  0  0  0  0  0  0  0
    0.0000    0.0000    0.0000 C   0  0  0  0  0  0  0  0  0  0  0  0
    0.0000    0.0000    0.0000 C   0  0  0  0  0  0  0  0  0  0  0  0
    0.0000    0.0000    0.0000 C   0  0  0  0  0  0  0  0  0  0  0  0
    0.0000    0.0000    0.0000 C   0  0  0  0  0  0  0  0  0  0  0  0
  1  2  1  0
  2  3  1  0
  3  4  1  0
  4  5  1  0
  5  6  1  0
  6  7  1  0
  7  8  1  0
  8  9  1  0
  9 10  1  0
 10 11  1  0
 11 12  1  0
  2 13  1  0
 13 14  1  0
 14 15  1  0
 15 16  2  0
 15 17  1  0
 17 18  1  0
 18 19  1  0
 19 20  1  0
 20 21  1  0
 21 22  1  0
 22 23  1  0
 23 24  1  0
 24 25  1  0
 25 26  1  0
 26 27  1  0
 27 28  1  0
 28 29  1  0
 20 30  1  0
 30 31  1  0
 17 32  1  0
 32 33  2  0
 33 34  1  0
 34 35  2  0
 35 36  1  0
 36 37  2  0
 12  7  1  0
 37 14  1  0
 31 17  1  0
 29 22  1  0
 37 32  1  0
M  END
>  <pIC50>  (259) 
6.3

>  <ChEMBL_ID>  (259) 
CHEMBL370613

>  <document_journal>  (259) 
Bioorg. Med. Chem. Lett.

>  <bao_endpoint>  (259) 
BAO_0000190

>  <potential_duplicate>  (259) 
False

>  <uo_units>  (259) 
UO_0000065

>  <canonical_smiles>  (259) 
OC(CNCCN1CCOCC1)CN2C(=O)C3(CCN(CC4CCCCCCC4)CC3)c5ccccc25

>  <parent_molecule_chembl_id>  (259) 
CHEMBL370613

>  <assay_type>  (259) 
B

>  <src_id>  (259) 
1

>  <ligand_efficiency>  (259) 
{u'le': u'0.23', u'bei': u'12.29', u'sei': u'9.23', u'lle': u'2.88'}

>  <standard_flag>  (259) 
True

>  <molecule_chembl_id>  (259) 
CHEMBL370613

>  <target_organism>  (259) 
Homo sapiens

>  <standard_units>  (259) 
nM

>  <record_id>  (259) 
405016

>  <document_chembl_id>  (259) 
CHEMBL1143642

>  <bao_format>  (259) 
BAO_0000219

>  <data_validity_description>  (259) 
None

>  <activity_id>  (259) 
1616853

>  <standard_type>  (259) 
IC50

>  <target_chembl_id>  (259) 
CHEMBL233

>  <data_validity_comment>  (259) 
None

>  <published_value>  (259) 
0.5

>  <document_year>  (259) 
2005

>  <target_pref_name>  (259) 
Mu opioid receptor

>  <assay_chembl_id>  (259) 
CHEMBL880418

>  <standard_relation>  (259) 
=

>  <assay_description>  (259) 
Binding affinity against human opioid receptor mu 1 expressed in HEK293 cells using [3H]DAMGO radioligand

>  <published_relation>  (259) 
=

>  <standard_value>  (259) 
500

>  <qudt_units>  (259) 
http://www.openphacts.org/units/Nanomolar

>  <target_tax_id>  (259) 
9606

>  <bao_label>  (259) 
cell-based format

>  <published_units>  (259) 
uM

>  <pchembl_value>  (259) 
6.3

>  <published_type>  (259) 
IC50

>  <activity_comment>  (259) 
None

$$$$

     RDKit          

 39 43  0  0  0  0  0  0  0  0999 V2000
    0.0000    0.0000    0.0000 C   0  0  0  0  0  0  0  0  0  0  0  0
    0.0000    0.0000    0.0000 C   0  0  0  0  0  0  0  0  0  0  0  0
    0.0000    0.0000    0.0000 N   0  0  0  0  0  0  0  0  0  0  0  0
    0.0000    0.0000    0.0000 C   0  0  0  0  0  0  0  0  0  0  0  0
    0.0000    0.0000    0.0000 C   0  0  0  0  0  0  0  0  0  0  0  0
    0.0000    0.0000    0.0000 O   0  0  0  0  0  0  0  0  0  0  0  0
    0.0000    0.0000    0.0000 C   0  0  0  0  0  0  0  0  0  0  0  0
    0.0000    0.0000    0.0000 N   0  0  0  0  0  0  0  0  0  0  0  0
    0.0000    0.0000    0.0000 C   0  0  0  0  0  0  0  0  0  0  0  0
    0.0000    0.0000    0.0000 O   0  0  0  0  0  0  0  0  0  0  0  0
    0.0000    0.0000    0.0000 C   0  0  0  0  0  0  0  0  0  0  0  0
    0.0000    0.0000    0.0000 C   0  0  0  0  0  0  0  0  0  0  0  0
    0.0000    0.0000    0.0000 C   0  0  0  0  0  0  0  0  0  0  0  0
    0.0000    0.0000    0.0000 N   0  0  0  0  0  0  0  0  0  0  0  0
    0.0000    0.0000    0.0000 C   0  0  0  0  0  0  0  0  0  0  0  0
    0.0000    0.0000    0.0000 C   0  0  0  0  0  0  0  0  0  0  0  0
    0.0000    0.0000    0.0000 C   0  0  0  0  0  0  0  0  0  0  0  0
    0.0000    0.0000    0.0000 C   0  0  0  0  0  0  0  0  0  0  0  0
    0.0000    0.0000    0.0000 C   0  0  0  0  0  0  0  0  0  0  0  0
    0.0000    0.0000    0.0000 C   0  0  0  0  0  0  0  0  0  0  0  0
    0.0000    0.0000    0.0000 C   0  0  0  0  0  0  0  0  0  0  0  0
    0.0000    0.0000    0.0000 C   0  0  0  0  0  0  0  0  0  0  0  0
    0.0000    0.0000    0.0000 C   0  0  0  0  0  0  0  0  0  0  0  0
    0.0000    0.0000    0.0000 C   0  0  0  0  0  0  0  0  0  0  0  0
    0.0000    0.0000    0.0000 C   0  0  0  0  0  0  0  0  0  0  0  0
    0.0000    0.0000    0.0000 C   0  0  0  0  0  0  0  0  0  0  0  0
    0.0000    0.0000    0.0000 C   0  0  0  0  0  0  0  0  0  0  0  0
    0.0000    0.0000    0.0000 C   0  0  0  0  0  0  0  0  0  0  0  0
    0.0000    0.0000    0.0000 C   0  0  0  0  0  0  0  0  0  0  0  0
    0.0000    0.0000    0.0000 C   0  0  0  0  0  0  0  0  0  0  0  0
    0.0000    0.0000    0.0000 C   0  0  0  0  0  0  0  0  0  0  0  0
    0.0000    0.0000    0.0000 C   0  0  0  0  0  0  0  0  0  0  0  0
    0.0000    0.0000    0.0000 C   0  0  0  0  0  0  0  0  0  0  0  0
    0.0000    0.0000    0.0000 C   0  0  0  0  0  0  0  0  0  0  0  0
    0.0000    0.0000    0.0000 C   0  0  0  0  0  0  0  0  0  0  0  0
    0.0000    0.0000    0.0000 C   0  0  0  0  0  0  0  0  0  0  0  0
    0.0000    0.0000    0.0000 C   0  0  0  0  0  0  0  0  0  0  0  0
    0.0000    0.0000    0.0000 C   0  0  0  0  0  0  0  0  0  0  0  0
    0.0000    0.0000    0.0000 C   0  0  0  0  0  0  0  0  0  0  0  0
  1  2  1  0
  2  3  1  0
  3  4  1  0
  4  5  1  0
  5  6  1  0
  5  7  1  0
  7  8  1  0
  8  9  1  0
  9 10  2  0
  9 11  1  0
 11 12  1  0
 12 13  1  0
 13 14  1  0
 14 15  1  0
 15 16  1  0
 16 17  1  0
 17 18  1  0
 18 19  1  0
 19 20  1  0
 20 21  1  0
 21 22  1  0
 22 23  1  0
 14 24  1  0
 24 25  1  0
 11 26  1  0
 26 27  2  0
 27 28  1  0
 28 29  2  0
 29 30  1  0
 30 31  2  0
  3 32  1  0
 32 33  1  0
 33 34  2  0
 34 35  1  0
 35 36  2  0
 36 37  1  0
 36 38  1  0
 38 39  2  0
 31  8  1  0
 25 11  1  0
 23 16  1  0
 31 26  1  0
 39 33  1  0
M  END
>  <pIC50>  (260) 
6.21

>  <ChEMBL_ID>  (260) 
CHEMBL198604

>  <document_journal>  (260) 
Bioorg. Med. Chem. Lett.

>  <bao_endpoint>  (260) 
BAO_0000190

>  <potential_duplicate>  (260) 
False

>  <uo_units>  (260) 
UO_0000065

>  <canonical_smiles>  (260) 
CCN(CC(O)CN1C(=O)C2(CCN(CC3CCCCCCC3)CC2)c4ccccc14)Cc5ccc(C)cc5

>  <parent_molecule_chembl_id>  (260) 
CHEMBL198604

>  <assay_type>  (260) 
B

>  <src_id>  (260) 
1

>  <ligand_efficiency>  (260) 
{u'le': u'0.22', u'bei': u'11.67', u'sei': u'13.2', u'lle': u'-0.34'}

>  <standard_flag>  (260) 
True

>  <molecule_chembl_id>  (260) 
CHEMBL198604

>  <target_organism>  (260) 
Homo sapiens

>  <standard_units>  (260) 
nM

>  <record_id>  (260) 
405017

>  <document_chembl_id>  (260) 
CHEMBL1143642

>  <bao_format>  (260) 
BAO_0000219

>  <data_validity_description>  (260) 
None

>  <activity_id>  (260) 
1616858

>  <standard_type>  (260) 
IC50

>  <target_chembl_id>  (260) 
CHEMBL233

>  <data_validity_comment>  (260) 
None

>  <published_value>  (260) 
0.62

>  <document_year>  (260) 
2005

>  <target_pref_name>  (260) 
Mu opioid receptor

>  <assay_chembl_id>  (260) 
CHEMBL880418

>  <standard_relation>  (260) 
=

>  <assay_description>  (260) 
Binding affinity against human opioid receptor mu 1 expressed in HEK293 cells using [3H]DAMGO radioligand

>  <published_relation>  (260) 
=

>  <standard_value>  (260) 
620

>  <qudt_units>  (260) 
http://www.openphacts.org/units/Nanomolar

>  <target_tax_id>  (260) 
9606

>  <bao_label>  (260) 
cell-based format

>  <published_units>  (260) 
uM

>  <pchembl_value>  (260) 
6.21

>  <published_type>  (260) 
IC50

>  <activity_comment>  (260) 
None

$$$$

     RDKit          

 30 34  0  0  0  0  0  0  0  0999 V2000
    0.0000    0.0000    0.0000 C   0  0  0  0  0  0  0  0  0  0  0  0
    0.0000    0.0000    0.0000 O   0  0  0  0  0  0  0  0  0  0  0  0
    0.0000    0.0000    0.0000 C   0  0  0  0  0  0  0  0  0  0  0  0
    0.0000    0.0000    0.0000 C   0  0  0  0  0  0  0  0  0  0  0  0
    0.0000    0.0000    0.0000 C   0  0  0  0  0  0  0  0  0  0  0  0
    0.0000    0.0000    0.0000 C   0  0  0  0  0  0  0  0  0  0  0  0
    0.0000    0.0000    0.0000 C   0  0  0  0  0  0  0  0  0  0  0  0
    0.0000    0.0000    0.0000 C   0  0  0  0  0  0  0  0  0  0  0  0
    0.0000    0.0000    0.0000 N   0  0  0  0  0  0  0  0  0  0  0  0
    0.0000    0.0000    0.0000 C   0  0  0  0  0  0  0  0  0  0  0  0
    0.0000    0.0000    0.0000 C   0  0  0  0  0  0  0  0  0  0  0  0
    0.0000    0.0000    0.0000 C   0  0  0  0  0  0  0  0  0  0  0  0
    0.0000    0.0000    0.0000 C   0  0  0  0  0  0  0  0  0  0  0  0
    0.0000    0.0000    0.0000 C   0  0  0  0  0  0  0  0  0  0  0  0
    0.0000    0.0000    0.0000 O   0  0  0  0  0  0  0  0  0  0  0  0
    0.0000    0.0000    0.0000 C   0  0  0  0  0  0  0  0  0  0  0  0
    0.0000    0.0000    0.0000 C   0  0  0  0  0  0  0  0  0  0  0  0
    0.0000    0.0000    0.0000 C   0  0  0  0  0  0  0  0  0  0  0  0
    0.0000    0.0000    0.0000 N   0  0  0  0  0  0  0  0  0  0  0  0
    0.0000    0.0000    0.0000 C   0  0  0  0  0  0  0  0  0  0  0  0
    0.0000    0.0000    0.0000 C   0  0  0  0  0  0  0  0  0  0  0  0
    0.0000    0.0000    0.0000 C   0  0  0  0  0  0  0  0  0  0  0  0
    0.0000    0.0000    0.0000 C   0  0  0  0  0  0  0  0  0  0  0  0
    0.0000    0.0000    0.0000 C   0  0  0  0  0  0  0  0  0  0  0  0
    0.0000    0.0000    0.0000 C   0  0  0  0  0  0  0  0  0  0  0  0
    0.0000    0.0000    0.0000 C   0  0  0  0  0  0  0  0  0  0  0  0
    0.0000    0.0000    0.0000 C   0  0  0  0  0  0  0  0  0  0  0  0
    0.0000    0.0000    0.0000 C   0  0  0  0  0  0  0  0  0  0  0  0
    0.0000    0.0000    0.0000 C   0  0  0  0  0  0  0  0  0  0  0  0
    0.0000    0.0000    0.0000 C   0  0  0  0  0  0  0  0  0  0  0  0
  1  2  1  0
  2  3  1  0
  3  4  2  0
  4  5  1  0
  5  6  2  0
  6  7  1  0
  7  8  2  0
  7  9  1  0
  9 10  1  0
 10 11  1  0
 11 12  1  0
 12 13  1  0
  9 14  1  0
 14 15  2  0
 14 16  1  0
 16 17  1  0
 17 18  1  0
 18 19  1  0
 19 20  1  0
 20 21  1  0
 21 22  1  0
 22 23  1  0
 23 24  1  0
 24 25  1  0
 25 26  1  0
 26 27  1  0
 27 28  1  0
 19 29  1  0
 29 30  1  0
  8  3  1  0
 16  6  1  0
 13 11  1  0
 30 16  1  0
 28 21  1  0
M  END
>  <pIC50>  (261) 
5.0

>  <ChEMBL_ID>  (261) 
CHEMBL197959

>  <document_journal>  (261) 
Bioorg. Med. Chem. Lett.

>  <bao_endpoint>  (261) 
BAO_0000190

>  <potential_duplicate>  (261) 
False

>  <uo_units>  (261) 
UO_0000065

>  <canonical_smiles>  (261) 
COc1ccc2c(c1)N(CC3CC3)C(=O)C24CCN(CC5CCCCCCC5)CC4

>  <parent_molecule_chembl_id>  (261) 
CHEMBL197959

>  <assay_type>  (261) 
B

>  <src_id>  (261) 
1

>  <ligand_efficiency>  (261) 
{u'le': u'0.23', u'bei': u'12.18', u'sei': u'15.25', u'lle': u'-0.31'}

>  <standard_flag>  (261) 
True

>  <molecule_chembl_id>  (261) 
CHEMBL197959

>  <target_organism>  (261) 
Homo sapiens

>  <standard_units>  (261) 
nM

>  <record_id>  (261) 
405018

>  <document_chembl_id>  (261) 
CHEMBL1143642

>  <bao_format>  (261) 
BAO_0000219

>  <data_validity_description>  (261) 
None

>  <activity_id>  (261) 
1616863

>  <standard_type>  (261) 
IC50

>  <target_chembl_id>  (261) 
CHEMBL233

>  <data_validity_comment>  (261) 
None

>  <published_value>  (261) 
10

>  <document_year>  (261) 
2005

>  <target_pref_name>  (261) 
Mu opioid receptor

>  <assay_chembl_id>  (261) 
CHEMBL880418

>  <standard_relation>  (261) 
=

>  <assay_description>  (261) 
Binding affinity against human opioid receptor mu 1 expressed in HEK293 cells using [3H]DAMGO radioligand

>  <published_relation>  (261) 
=

>  <standard_value>  (261) 
10000

>  <qudt_units>  (261) 
http://www.openphacts.org/units/Nanomolar

>  <target_tax_id>  (261) 
9606

>  <bao_label>  (261) 
cell-based format

>  <published_units>  (261) 
uM

>  <pchembl_value>  (261) 
5

>  <published_type>  (261) 
IC50

>  <activity_comment>  (261) 
None

$$$$

     RDKit          

 27 30  0  0  0  0  0  0  0  0999 V2000
    0.0000    0.0000    0.0000 C   0  0  0  0  0  0  0  0  0  0  0  0
    0.0000    0.0000    0.0000 O   0  0  0  0  0  0  0  0  0  0  0  0
    0.0000    0.0000    0.0000 C   0  0  0  0  0  0  0  0  0  0  0  0
    0.0000    0.0000    0.0000 C   0  0  0  0  0  0  0  0  0  0  0  0
    0.0000    0.0000    0.0000 C   0  0  0  0  0  0  0  0  0  0  0  0
    0.0000    0.0000    0.0000 C   0  0  0  0  0  0  0  0  0  0  0  0
    0.0000    0.0000    0.0000 C   0  0  0  0  0  0  0  0  0  0  0  0
    0.0000    0.0000    0.0000 C   0  0  0  0  0  0  0  0  0  0  0  0
    0.0000    0.0000    0.0000 N   0  0  0  0  0  0  0  0  0  0  0  0
    0.0000    0.0000    0.0000 C   0  0  0  0  0  0  0  0  0  0  0  0
    0.0000    0.0000    0.0000 C   0  0  0  0  0  0  0  0  0  0  0  0
    0.0000    0.0000    0.0000 O   0  0  0  0  0  0  0  0  0  0  0  0
    0.0000    0.0000    0.0000 C   0  0  0  0  0  0  0  0  0  0  0  0
    0.0000    0.0000    0.0000 C   0  0  0  0  0  0  0  0  0  0  0  0
    0.0000    0.0000    0.0000 C   0  0  0  0  0  0  0  0  0  0  0  0
    0.0000    0.0000    0.0000 N   0  0  0  0  0  0  0  0  0  0  0  0
    0.0000    0.0000    0.0000 C   0  0  0  0  0  0  0  0  0  0  0  0
    0.0000    0.0000    0.0000 C   0  0  0  0  0  0  0  0  0  0  0  0
    0.0000    0.0000    0.0000 C   0  0  0  0  0  0  0  0  0  0  0  0
    0.0000    0.0000    0.0000 C   0  0  0  0  0  0  0  0  0  0  0  0
    0.0000    0.0000    0.0000 C   0  0  0  0  0  0  0  0  0  0  0  0
    0.0000    0.0000    0.0000 C   0  0  0  0  0  0  0  0  0  0  0  0
    0.0000    0.0000    0.0000 C   0  0  0  0  0  0  0  0  0  0  0  0
    0.0000    0.0000    0.0000 C   0  0  0  0  0  0  0  0  0  0  0  0
    0.0000    0.0000    0.0000 C   0  0  0  0  0  0  0  0  0  0  0  0
    0.0000    0.0000    0.0000 C   0  0  0  0  0  0  0  0  0  0  0  0
    0.0000    0.0000    0.0000 C   0  0  0  0  0  0  0  0  0  0  0  0
  1  2  1  0
  2  3  1  0
  3  4  2  0
  4  5  1  0
  5  6  2  0
  6  7  1  0
  7  8  2  0
  7  9  1  0
  9 10  1  0
  9 11  1  0
 11 12  2  0
 11 13  1  0
 13 14  1  0
 14 15  1  0
 15 16  1  0
 16 17  1  0
 17 18  1  0
 18 19  1  0
 19 20  1  0
 20 21  1  0
 21 22  1  0
 22 23  1  0
 23 24  1  0
 24 25  1  0
 16 26  1  0
 26 27  1  0
  8  3  1  0
 13  6  1  0
 27 13  1  0
 25 18  1  0
M  END
>  <pIC50>  (262) 
5.79

>  <ChEMBL_ID>  (262) 
CHEMBL381429

>  <document_journal>  (262) 
Bioorg. Med. Chem. Lett.

>  <bao_endpoint>  (262) 
BAO_0000190

>  <potential_duplicate>  (262) 
False

>  <uo_units>  (262) 
UO_0000065

>  <canonical_smiles>  (262) 
COc1ccc2c(c1)N(C)C(=O)C23CCN(CC4CCCCCCC4)CC3

>  <parent_molecule_chembl_id>  (262) 
CHEMBL381429

>  <assay_type>  (262) 
B

>  <src_id>  (262) 
1

>  <ligand_efficiency>  (262) 
{u'le': u'0.29', u'bei': u'15.63', u'sei': u'17.67', u'lle': u'1.3'}

>  <standard_flag>  (262) 
True

>  <molecule_chembl_id>  (262) 
CHEMBL381429

>  <target_organism>  (262) 
Homo sapiens

>  <standard_units>  (262) 
nM

>  <record_id>  (262) 
405019

>  <document_chembl_id>  (262) 
CHEMBL1143642

>  <bao_format>  (262) 
BAO_0000219

>  <data_validity_description>  (262) 
None

>  <activity_id>  (262) 
1616868

>  <standard_type>  (262) 
IC50

>  <target_chembl_id>  (262) 
CHEMBL233

>  <data_validity_comment>  (262) 
None

>  <published_value>  (262) 
1.61

>  <document_year>  (262) 
2005

>  <target_pref_name>  (262) 
Mu opioid receptor

>  <assay_chembl_id>  (262) 
CHEMBL880418

>  <standard_relation>  (262) 
=

>  <assay_description>  (262) 
Binding affinity against human opioid receptor mu 1 expressed in HEK293 cells using [3H]DAMGO radioligand

>  <published_relation>  (262) 
=

>  <standard_value>  (262) 
1610

>  <qudt_units>  (262) 
http://www.openphacts.org/units/Nanomolar

>  <target_tax_id>  (262) 
9606

>  <bao_label>  (262) 
cell-based format

>  <published_units>  (262) 
uM

>  <pchembl_value>  (262) 
5.79

>  <published_type>  (262) 
IC50

>  <activity_comment>  (262) 
None

$$$$

     RDKit          

 28 31  0  0  0  0  0  0  0  0999 V2000
    0.0000    0.0000    0.0000 C   0  0  0  0  0  0  0  0  0  0  0  0
    0.0000    0.0000    0.0000 C   0  0  0  0  0  0  0  0  0  0  0  0
    0.0000    0.0000    0.0000 N   0  0  0  0  0  0  0  0  0  0  0  0
    0.0000    0.0000    0.0000 C   0  0  0  0  0  0  0  0  0  0  0  0
    0.0000    0.0000    0.0000 O   0  0  0  0  0  0  0  0  0  0  0  0
    0.0000    0.0000    0.0000 C   0  0  0  0  0  0  0  0  0  0  0  0
    0.0000    0.0000    0.0000 C   0  0  0  0  0  0  0  0  0  0  0  0
    0.0000    0.0000    0.0000 C   0  0  0  0  0  0  0  0  0  0  0  0
    0.0000    0.0000    0.0000 N   0  0  0  0  0  0  0  0  0  0  0  0
    0.0000    0.0000    0.0000 C   0  0  0  0  0  0  0  0  0  0  0  0
    0.0000    0.0000    0.0000 C   0  0  0  0  0  0  0  0  0  0  0  0
    0.0000    0.0000    0.0000 C   0  0  0  0  0  0  0  0  0  0  0  0
    0.0000    0.0000    0.0000 C   0  0  0  0  0  0  0  0  0  0  0  0
    0.0000    0.0000    0.0000 C   0  0  0  0  0  0  0  0  0  0  0  0
    0.0000    0.0000    0.0000 C   0  0  0  0  0  0  0  0  0  0  0  0
    0.0000    0.0000    0.0000 C   0  0  0  0  0  0  0  0  0  0  0  0
    0.0000    0.0000    0.0000 C   0  0  0  0  0  0  0  0  0  0  0  0
    0.0000    0.0000    0.0000 C   0  0  0  0  0  0  0  0  0  0  0  0
    0.0000    0.0000    0.0000 C   0  0  0  0  0  0  0  0  0  0  0  0
    0.0000    0.0000    0.0000 C   0  0  0  0  0  0  0  0  0  0  0  0
    0.0000    0.0000    0.0000 C   0  0  0  0  0  0  0  0  0  0  0  0
    0.0000    0.0000    0.0000 C   0  0  0  0  0  0  0  0  0  0  0  0
    0.0000    0.0000    0.0000 C   0  0  0  0  0  0  0  0  0  0  0  0
    0.0000    0.0000    0.0000 C   0  0  0  0  0  0  0  0  0  0  0  0
    0.0000    0.0000    0.0000 O   0  0  0  0  0  0  0  0  0  0  0  0
    0.0000    0.0000    0.0000 C   0  0  0  0  0  0  0  0  0  0  0  0
    0.0000    0.0000    0.0000 C   0  0  0  0  0  0  0  0  0  0  0  0
    0.0000    0.0000    0.0000 C   0  0  0  0  0  0  0  0  0  0  0  0
  1  2  1  0
  2  3  1  0
  3  4  1  0
  4  5  2  0
  4  6  1  0
  6  7  1  0
  7  8  1  0
  8  9  1  0
  9 10  1  0
 10 11  1  0
 11 12  1  0
 12 13  1  0
 13 14  1  0
 14 15  1  0
 15 16  1  0
 16 17  1  0
 17 18  1  0
  9 19  1  0
 19 20  1  0
  6 21  1  0
 21 22  2  0
 22 23  1  0
 23 24  2  0
 24 25  1  0
 25 26  1  0
 24 27  1  0
 27 28  2  0
 28  3  1  0
 20  6  1  0
 18 11  1  0
 28 21  1  0
M  END
>  <pIC50>  (263) 
5.84

>  <ChEMBL_ID>  (263) 
CHEMBL199095

>  <document_journal>  (263) 
Bioorg. Med. Chem. Lett.

>  <bao_endpoint>  (263) 
BAO_0000190

>  <potential_duplicate>  (263) 
False

>  <uo_units>  (263) 
UO_0000065

>  <canonical_smiles>  (263) 
CCN1C(=O)C2(CCN(CC3CCCCCCC3)CC2)c4ccc(OC)cc14

>  <parent_molecule_chembl_id>  (263) 
CHEMBL199095

>  <assay_type>  (263) 
B

>  <src_id>  (263) 
1

>  <ligand_efficiency>  (263) 
{u'le': u'0.28', u'bei': u'15.18', u'sei': u'17.8', u'lle': u'1'}

>  <standard_flag>  (263) 
True

>  <molecule_chembl_id>  (263) 
CHEMBL199095

>  <target_organism>  (263) 
Homo sapiens

>  <standard_units>  (263) 
nM

>  <record_id>  (263) 
405020

>  <document_chembl_id>  (263) 
CHEMBL1143642

>  <bao_format>  (263) 
BAO_0000219

>  <data_validity_description>  (263) 
None

>  <activity_id>  (263) 
1616873

>  <standard_type>  (263) 
IC50

>  <target_chembl_id>  (263) 
CHEMBL233

>  <data_validity_comment>  (263) 
None

>  <published_value>  (263) 
1.46

>  <document_year>  (263) 
2005

>  <target_pref_name>  (263) 
Mu opioid receptor

>  <assay_chembl_id>  (263) 
CHEMBL880418

>  <standard_relation>  (263) 
=

>  <assay_description>  (263) 
Binding affinity against human opioid receptor mu 1 expressed in HEK293 cells using [3H]DAMGO radioligand

>  <published_relation>  (263) 
=

>  <standard_value>  (263) 
1460

>  <qudt_units>  (263) 
http://www.openphacts.org/units/Nanomolar

>  <target_tax_id>  (263) 
9606

>  <bao_label>  (263) 
cell-based format

>  <published_units>  (263) 
uM

>  <pchembl_value>  (263) 
5.84

>  <published_type>  (263) 
IC50

>  <activity_comment>  (263) 
None

$$$$

     RDKit          

 25 28  0  0  0  0  0  0  0  0999 V2000
    0.0000    0.0000    0.0000 C   0  0  0  0  0  0  0  0  0  0  0  0
    0.0000    0.0000    0.0000 N   0  0  0  0  0  0  0  0  0  0  0  0
    0.0000    0.0000    0.0000 C   0  0  0  0  0  0  0  0  0  0  0  0
    0.0000    0.0000    0.0000 O   0  0  0  0  0  0  0  0  0  0  0  0
    0.0000    0.0000    0.0000 C   0  0  0  0  0  0  0  0  0  0  0  0
    0.0000    0.0000    0.0000 C   0  0  0  0  0  0  0  0  0  0  0  0
    0.0000    0.0000    0.0000 C   0  0  0  0  0  0  0  0  0  0  0  0
    0.0000    0.0000    0.0000 N   0  0  0  0  0  0  0  0  0  0  0  0
    0.0000    0.0000    0.0000 C   0  0  0  0  0  0  0  0  0  0  0  0
    0.0000    0.0000    0.0000 C   0  0  0  0  0  0  0  0  0  0  0  0
    0.0000    0.0000    0.0000 C   0  0  0  0  0  0  0  0  0  0  0  0
    0.0000    0.0000    0.0000 C   0  0  0  0  0  0  0  0  0  0  0  0
    0.0000    0.0000    0.0000 C   0  0  0  0  0  0  0  0  0  0  0  0
    0.0000    0.0000    0.0000 C   0  0  0  0  0  0  0  0  0  0  0  0
    0.0000    0.0000    0.0000 C   0  0  0  0  0  0  0  0  0  0  0  0
    0.0000    0.0000    0.0000 C   0  0  0  0  0  0  0  0  0  0  0  0
    0.0000    0.0000    0.0000 C   0  0  0  0  0  0  0  0  0  0  0  0
    0.0000    0.0000    0.0000 C   0  0  0  0  0  0  0  0  0  0  0  0
    0.0000    0.0000    0.0000 C   0  0  0  0  0  0  0  0  0  0  0  0
    0.0000    0.0000    0.0000 C   0  0  0  0  0  0  0  0  0  0  0  0
    0.0000    0.0000    0.0000 C   0  0  0  0  0  0  0  0  0  0  0  0
    0.0000    0.0000    0.0000 C   0  0  0  0  0  0  0  0  0  0  0  0
    0.0000    0.0000    0.0000 C   0  0  0  0  0  0  0  0  0  0  0  0
    0.0000    0.0000    0.0000 C   0  0  0  0  0  0  0  0  0  0  0  0
    0.0000    0.0000    0.0000 C   0  0  0  0  0  0  0  0  0  0  0  0
  1  2  1  0
  2  3  1  0
  3  4  2  0
  3  5  1  0
  5  6  1  0
  6  7  1  0
  7  8  1  0
  8  9  1  0
  9 10  1  0
 10 11  1  0
 11 12  1  0
 12 13  1  0
 13 14  1  0
 14 15  1  0
 15 16  1  0
 16 17  1  0
  8 18  1  0
 18 19  1  0
  5 20  1  0
 20 21  2  0
 21 22  1  0
 22 23  2  0
 23 24  1  0
 24 25  2  0
 25  2  1  0
 19  5  1  0
 17 10  1  0
 25 20  1  0
M  END
>  <pIC50>  (264) 
5.89

>  <ChEMBL_ID>  (264) 
CHEMBL194200

>  <document_journal>  (264) 
Bioorg. Med. Chem. Lett.

>  <bao_endpoint>  (264) 
BAO_0000190

>  <potential_duplicate>  (264) 
False

>  <uo_units>  (264) 
UO_0000065

>  <canonical_smiles>  (264) 
CN1C(=O)C2(CCN(CC3CCCCCCC3)CC2)c4ccccc14

>  <parent_molecule_chembl_id>  (264) 
CHEMBL194200

>  <assay_type>  (264) 
B

>  <src_id>  (264) 
1

>  <ligand_efficiency>  (264) 
{u'le': u'0.32', u'bei': u'17.29', u'sei': u'24.99', u'lle': u'1.39'}

>  <standard_flag>  (264) 
True

>  <molecule_chembl_id>  (264) 
CHEMBL194200

>  <target_organism>  (264) 
Homo sapiens

>  <standard_units>  (264) 
nM

>  <record_id>  (264) 
405022

>  <document_chembl_id>  (264) 
CHEMBL1143642

>  <bao_format>  (264) 
BAO_0000219

>  <data_validity_description>  (264) 
None

>  <activity_id>  (264) 
1616883

>  <standard_type>  (264) 
IC50

>  <target_chembl_id>  (264) 
CHEMBL233

>  <data_validity_comment>  (264) 
None

>  <published_value>  (264) 
1.3

>  <document_year>  (264) 
2005

>  <target_pref_name>  (264) 
Mu opioid receptor

>  <assay_chembl_id>  (264) 
CHEMBL880418

>  <standard_relation>  (264) 
=

>  <assay_description>  (264) 
Binding affinity against human opioid receptor mu 1 expressed in HEK293 cells using [3H]DAMGO radioligand

>  <published_relation>  (264) 
=

>  <standard_value>  (264) 
1300

>  <qudt_units>  (264) 
http://www.openphacts.org/units/Nanomolar

>  <target_tax_id>  (264) 
9606

>  <bao_label>  (264) 
cell-based format

>  <published_units>  (264) 
uM

>  <pchembl_value>  (264) 
5.89

>  <published_type>  (264) 
IC50

>  <activity_comment>  (264) 
None

$$$$

     RDKit          

 26 29  0  0  0  0  0  0  0  0999 V2000
    0.0000    0.0000    0.0000 C   0  0  0  0  0  0  0  0  0  0  0  0
    0.0000    0.0000    0.0000 N   0  0  0  0  0  0  0  0  0  0  0  0
    0.0000    0.0000    0.0000 C   0  0  0  0  0  0  0  0  0  0  0  0
    0.0000    0.0000    0.0000 O   0  0  0  0  0  0  0  0  0  0  0  0
    0.0000    0.0000    0.0000 C   0  0  0  0  0  0  0  0  0  0  0  0
    0.0000    0.0000    0.0000 C   0  0  0  0  0  0  0  0  0  0  0  0
    0.0000    0.0000    0.0000 C   0  0  0  0  0  0  0  0  0  0  0  0
    0.0000    0.0000    0.0000 N   0  0  0  0  0  0  0  0  0  0  0  0
    0.0000    0.0000    0.0000 C   0  0  0  0  0  0  0  0  0  0  0  0
    0.0000    0.0000    0.0000 C   0  0  0  0  0  0  0  0  0  0  0  0
    0.0000    0.0000    0.0000 C   0  0  0  0  0  0  0  0  0  0  0  0
    0.0000    0.0000    0.0000 C   0  0  0  0  0  0  0  0  0  0  0  0
    0.0000    0.0000    0.0000 C   0  0  0  0  0  0  0  0  0  0  0  0
    0.0000    0.0000    0.0000 C   0  0  0  0  0  0  0  0  0  0  0  0
    0.0000    0.0000    0.0000 C   0  0  0  0  0  0  0  0  0  0  0  0
    0.0000    0.0000    0.0000 C   0  0  0  0  0  0  0  0  0  0  0  0
    0.0000    0.0000    0.0000 C   0  0  0  0  0  0  0  0  0  0  0  0
    0.0000    0.0000    0.0000 C   0  0  0  0  0  0  0  0  0  0  0  0
    0.0000    0.0000    0.0000 C   0  0  0  0  0  0  0  0  0  0  0  0
    0.0000    0.0000    0.0000 C   0  0  0  0  0  0  0  0  0  0  0  0
    0.0000    0.0000    0.0000 C   0  0  0  0  0  0  0  0  0  0  0  0
    0.0000    0.0000    0.0000 C   0  0  0  0  0  0  0  0  0  0  0  0
    0.0000    0.0000    0.0000 C   0  0  0  0  0  0  0  0  0  0  0  0
    0.0000    0.0000    0.0000 C   0  0  0  0  0  0  0  0  0  0  0  0
    0.0000    0.0000    0.0000 C   0  0  0  0  0  0  0  0  0  0  0  0
    0.0000    0.0000    0.0000 C   0  0  0  0  0  0  0  0  0  0  0  0
  1  2  1  0
  2  3  1  0
  3  4  2  0
  3  5  1  0
  5  6  1  0
  6  7  1  0
  7  8  1  0
  8  9  1  0
  9 10  1  0
 10 11  1  0
 11 12  1  0
 12 13  1  0
 13 14  1  0
 14 15  1  0
 15 16  1  0
 16 17  1  0
  8 18  1  0
 18 19  1  0
  5 20  1  0
 20 21  2  0
 21 22  1  0
 22 23  2  0
 23 24  1  0
 23 25  1  0
 25 26  2  0
 26  2  1  0
 19  5  1  0
 17 10  1  0
 26 20  1  0
M  END
>  <pIC50>  (265) 
5.19

>  <ChEMBL_ID>  (265) 
CHEMBL199011

>  <document_journal>  (265) 
Bioorg. Med. Chem. Lett.

>  <bao_endpoint>  (265) 
BAO_0000190

>  <potential_duplicate>  (265) 
False

>  <uo_units>  (265) 
UO_0000065

>  <canonical_smiles>  (265) 
CN1C(=O)C2(CCN(CC3CCCCCCC3)CC2)c4ccc(C)cc14

>  <parent_molecule_chembl_id>  (265) 
CHEMBL199011

>  <assay_type>  (265) 
B

>  <src_id>  (265) 
1

>  <ligand_efficiency>  (265) 
{u'le': u'0.27', u'bei': u'14.64', u'sei': u'22.03', u'lle': u'0.2'}

>  <standard_flag>  (265) 
True

>  <molecule_chembl_id>  (265) 
CHEMBL199011

>  <target_organism>  (265) 
Homo sapiens

>  <standard_units>  (265) 
nM

>  <record_id>  (265) 
405023

>  <document_chembl_id>  (265) 
CHEMBL1143642

>  <bao_format>  (265) 
BAO_0000219

>  <data_validity_description>  (265) 
None

>  <activity_id>  (265) 
1616887

>  <standard_type>  (265) 
IC50

>  <target_chembl_id>  (265) 
CHEMBL233

>  <data_validity_comment>  (265) 
None

>  <published_value>  (265) 
6.47

>  <document_year>  (265) 
2005

>  <target_pref_name>  (265) 
Mu opioid receptor

>  <assay_chembl_id>  (265) 
CHEMBL880418

>  <standard_relation>  (265) 
=

>  <assay_description>  (265) 
Binding affinity against human opioid receptor mu 1 expressed in HEK293 cells using [3H]DAMGO radioligand

>  <published_relation>  (265) 
=

>  <standard_value>  (265) 
6470

>  <qudt_units>  (265) 
http://www.openphacts.org/units/Nanomolar

>  <target_tax_id>  (265) 
9606

>  <bao_label>  (265) 
cell-based format

>  <published_units>  (265) 
uM

>  <pchembl_value>  (265) 
5.19

>  <published_type>  (265) 
IC50

>  <activity_comment>  (265) 
None

$$$$

     RDKit          

 26 29  0  0  0  0  0  0  0  0999 V2000
    0.0000    0.0000    0.0000 C   0  0  0  0  0  0  0  0  0  0  0  0
    0.0000    0.0000    0.0000 N   0  0  0  0  0  0  0  0  0  0  0  0
    0.0000    0.0000    0.0000 C   0  0  0  0  0  0  0  0  0  0  0  0
    0.0000    0.0000    0.0000 O   0  0  0  0  0  0  0  0  0  0  0  0
    0.0000    0.0000    0.0000 C   0  0  0  0  0  0  0  0  0  0  0  0
    0.0000    0.0000    0.0000 C   0  0  0  0  0  0  0  0  0  0  0  0
    0.0000    0.0000    0.0000 C   0  0  0  0  0  0  0  0  0  0  0  0
    0.0000    0.0000    0.0000 N   0  0  0  0  0  0  0  0  0  0  0  0
    0.0000    0.0000    0.0000 C   0  0  0  0  0  0  0  0  0  0  0  0
    0.0000    0.0000    0.0000 C   0  0  0  0  0  0  0  0  0  0  0  0
    0.0000    0.0000    0.0000 C   0  0  0  0  0  0  0  0  0  0  0  0
    0.0000    0.0000    0.0000 C   0  0  0  0  0  0  0  0  0  0  0  0
    0.0000    0.0000    0.0000 C   0  0  0  0  0  0  0  0  0  0  0  0
    0.0000    0.0000    0.0000 C   0  0  0  0  0  0  0  0  0  0  0  0
    0.0000    0.0000    0.0000 C   0  0  0  0  0  0  0  0  0  0  0  0
    0.0000    0.0000    0.0000 C   0  0  0  0  0  0  0  0  0  0  0  0
    0.0000    0.0000    0.0000 C   0  0  0  0  0  0  0  0  0  0  0  0
    0.0000    0.0000    0.0000 C   0  0  0  0  0  0  0  0  0  0  0  0
    0.0000    0.0000    0.0000 C   0  0  0  0  0  0  0  0  0  0  0  0
    0.0000    0.0000    0.0000 C   0  0  0  0  0  0  0  0  0  0  0  0
    0.0000    0.0000    0.0000 C   0  0  0  0  0  0  0  0  0  0  0  0
    0.0000    0.0000    0.0000 C   0  0  0  0  0  0  0  0  0  0  0  0
    0.0000    0.0000    0.0000 C   0  0  0  0  0  0  0  0  0  0  0  0
    0.0000    0.0000    0.0000 C   0  0  0  0  0  0  0  0  0  0  0  0
    0.0000    0.0000    0.0000 C   0  0  0  0  0  0  0  0  0  0  0  0
    0.0000    0.0000    0.0000 C   0  0  0  0  0  0  0  0  0  0  0  0
  1  2  1  0
  2  3  1  0
  3  4  2  0
  3  5  1  0
  5  6  1  0
  6  7  1  0
  7  8  1  0
  8  9  1  0
  9 10  1  0
 10 11  1  0
 11 12  1  0
 12 13  1  0
 13 14  1  0
 14 15  1  0
 15 16  1  0
 16 17  1  0
  8 18  1  0
 18 19  1  0
  5 20  1  0
 20 21  2  0
 21 22  1  0
 22 23  1  0
 22 24  2  0
 24 25  1  0
 25 26  2  0
 26  2  1  0
 19  5  1  0
 17 10  1  0
 26 20  1  0
M  END
>  <pIC50>  (266) 
5.37

>  <ChEMBL_ID>  (266) 
CHEMBL369945

>  <document_journal>  (266) 
Bioorg. Med. Chem. Lett.

>  <bao_endpoint>  (266) 
BAO_0000190

>  <potential_duplicate>  (266) 
False

>  <uo_units>  (266) 
UO_0000065

>  <canonical_smiles>  (266) 
CN1C(=O)C2(CCN(CC3CCCCCCC3)CC2)c4cc(C)ccc14

>  <parent_molecule_chembl_id>  (266) 
CHEMBL369945

>  <assay_type>  (266) 
B

>  <src_id>  (266) 
1

>  <ligand_efficiency>  (266) 
{u'le': u'0.28', u'bei': u'15.14', u'sei': u'22.8', u'lle': u'0.38'}

>  <standard_flag>  (266) 
True

>  <molecule_chembl_id>  (266) 
CHEMBL369945

>  <target_organism>  (266) 
Homo sapiens

>  <standard_units>  (266) 
nM

>  <record_id>  (266) 
405025

>  <document_chembl_id>  (266) 
CHEMBL1143642

>  <bao_format>  (266) 
BAO_0000219

>  <data_validity_description>  (266) 
None

>  <activity_id>  (266) 
1616893

>  <standard_type>  (266) 
IC50

>  <target_chembl_id>  (266) 
CHEMBL233

>  <data_validity_comment>  (266) 
None

>  <published_value>  (266) 
4.28

>  <document_year>  (266) 
2005

>  <target_pref_name>  (266) 
Mu opioid receptor

>  <assay_chembl_id>  (266) 
CHEMBL880418

>  <standard_relation>  (266) 
=

>  <assay_description>  (266) 
Binding affinity against human opioid receptor mu 1 expressed in HEK293 cells using [3H]DAMGO radioligand

>  <published_relation>  (266) 
=

>  <standard_value>  (266) 
4280

>  <qudt_units>  (266) 
http://www.openphacts.org/units/Nanomolar

>  <target_tax_id>  (266) 
9606

>  <bao_label>  (266) 
cell-based format

>  <published_units>  (266) 
uM

>  <pchembl_value>  (266) 
5.37

>  <published_type>  (266) 
IC50

>  <activity_comment>  (266) 
None

$$$$

     RDKit          

 26 29  0  0  0  0  0  0  0  0999 V2000
    0.0000    0.0000    0.0000 C   0  0  0  0  0  0  0  0  0  0  0  0
    0.0000    0.0000    0.0000 N   0  0  0  0  0  0  0  0  0  0  0  0
    0.0000    0.0000    0.0000 C   0  0  0  0  0  0  0  0  0  0  0  0
    0.0000    0.0000    0.0000 O   0  0  0  0  0  0  0  0  0  0  0  0
    0.0000    0.0000    0.0000 C   0  0  0  0  0  0  0  0  0  0  0  0
    0.0000    0.0000    0.0000 C   0  0  0  0  0  0  0  0  0  0  0  0
    0.0000    0.0000    0.0000 C   0  0  0  0  0  0  0  0  0  0  0  0
    0.0000    0.0000    0.0000 N   0  0  0  0  0  0  0  0  0  0  0  0
    0.0000    0.0000    0.0000 C   0  0  0  0  0  0  0  0  0  0  0  0
    0.0000    0.0000    0.0000 C   0  0  0  0  0  0  0  0  0  0  0  0
    0.0000    0.0000    0.0000 C   0  0  0  0  0  0  0  0  0  0  0  0
    0.0000    0.0000    0.0000 C   0  0  0  0  0  0  0  0  0  0  0  0
    0.0000    0.0000    0.0000 C   0  0  0  0  0  0  0  0  0  0  0  0
    0.0000    0.0000    0.0000 C   0  0  0  0  0  0  0  0  0  0  0  0
    0.0000    0.0000    0.0000 C   0  0  0  0  0  0  0  0  0  0  0  0
    0.0000    0.0000    0.0000 C   0  0  0  0  0  0  0  0  0  0  0  0
    0.0000    0.0000    0.0000 C   0  0  0  0  0  0  0  0  0  0  0  0
    0.0000    0.0000    0.0000 C   0  0  0  0  0  0  0  0  0  0  0  0
    0.0000    0.0000    0.0000 C   0  0  0  0  0  0  0  0  0  0  0  0
    0.0000    0.0000    0.0000 C   0  0  0  0  0  0  0  0  0  0  0  0
    0.0000    0.0000    0.0000 C   0  0  0  0  0  0  0  0  0  0  0  0
    0.0000    0.0000    0.0000 C   0  0  0  0  0  0  0  0  0  0  0  0
    0.0000    0.0000    0.0000 C   0  0  0  0  0  0  0  0  0  0  0  0
    0.0000    0.0000    0.0000 C   0  0  0  0  0  0  0  0  0  0  0  0
    0.0000    0.0000    0.0000 C   0  0  0  0  0  0  0  0  0  0  0  0
    0.0000    0.0000    0.0000 C   0  0  0  0  0  0  0  0  0  0  0  0
  1  2  1  0
  2  3  1  0
  3  4  2  0
  3  5  1  0
  5  6  1  0
  6  7  1  0
  7  8  1  0
  8  9  1  0
  9 10  1  0
 10 11  1  0
 11 12  1  0
 12 13  1  0
 13 14  1  0
 14 15  1  0
 15 16  1  0
 16 17  1  0
  8 18  1  0
 18 19  1  0
  5 20  1  0
 20 21  2  0
 21 22  1  0
 21 23  1  0
 23 24  2  0
 24 25  1  0
 25 26  2  0
 26  2  1  0
 19  5  1  0
 17 10  1  0
 26 20  1  0
M  END
>  <pIC50>  (267) 
6.32

>  <ChEMBL_ID>  (267) 
CHEMBL437505

>  <document_journal>  (267) 
Bioorg. Med. Chem. Lett.

>  <bao_endpoint>  (267) 
BAO_0000190

>  <potential_duplicate>  (267) 
False

>  <uo_units>  (267) 
UO_0000065

>  <canonical_smiles>  (267) 
CN1C(=O)C2(CCN(CC3CCCCCCC3)CC2)c4c(C)cccc14

>  <parent_molecule_chembl_id>  (267) 
CHEMBL437505

>  <assay_type>  (267) 
B

>  <src_id>  (267) 
1

>  <ligand_efficiency>  (267) 
{u'le': u'0.33', u'bei': u'17.82', u'sei': u'26.83', u'lle': u'1.33'}

>  <standard_flag>  (267) 
True

>  <molecule_chembl_id>  (267) 
CHEMBL437505

>  <target_organism>  (267) 
Homo sapiens

>  <standard_units>  (267) 
nM

>  <record_id>  (267) 
405026

>  <document_chembl_id>  (267) 
CHEMBL1143642

>  <bao_format>  (267) 
BAO_0000219

>  <data_validity_description>  (267) 
None

>  <activity_id>  (267) 
1616898

>  <standard_type>  (267) 
IC50

>  <target_chembl_id>  (267) 
CHEMBL233

>  <data_validity_comment>  (267) 
None

>  <published_value>  (267) 
0.48

>  <document_year>  (267) 
2005

>  <target_pref_name>  (267) 
Mu opioid receptor

>  <assay_chembl_id>  (267) 
CHEMBL880418

>  <standard_relation>  (267) 
=

>  <assay_description>  (267) 
Binding affinity against human opioid receptor mu 1 expressed in HEK293 cells using [3H]DAMGO radioligand

>  <published_relation>  (267) 
=

>  <standard_value>  (267) 
480

>  <qudt_units>  (267) 
http://www.openphacts.org/units/Nanomolar

>  <target_tax_id>  (267) 
9606

>  <bao_label>  (267) 
cell-based format

>  <published_units>  (267) 
uM

>  <pchembl_value>  (267) 
6.32

>  <published_type>  (267) 
IC50

>  <activity_comment>  (267) 
None

$$$$

     RDKit          

 29 32  0  0  0  0  0  0  0  0999 V2000
    0.0000    0.0000    0.0000 C   0  0  0  0  0  0  0  0  0  0  0  0
    0.0000    0.0000    0.0000 N   0  0  0  0  0  0  0  0  0  0  0  0
    0.0000    0.0000    0.0000 C   0  0  0  0  0  0  0  0  0  0  0  0
    0.0000    0.0000    0.0000 O   0  0  0  0  0  0  0  0  0  0  0  0
    0.0000    0.0000    0.0000 C   0  0  0  0  0  0  0  0  0  0  0  0
    0.0000    0.0000    0.0000 C   0  0  0  0  0  0  0  0  0  0  0  0
    0.0000    0.0000    0.0000 C   0  0  0  0  0  0  0  0  0  0  0  0
    0.0000    0.0000    0.0000 N   0  0  0  0  0  0  0  0  0  0  0  0
    0.0000    0.0000    0.0000 C   0  0  0  0  0  0  0  0  0  0  0  0
    0.0000    0.0000    0.0000 C   0  0  0  0  0  0  0  0  0  0  0  0
    0.0000    0.0000    0.0000 C   0  0  0  0  0  0  0  0  0  0  0  0
    0.0000    0.0000    0.0000 C   0  0  0  0  0  0  0  0  0  0  0  0
    0.0000    0.0000    0.0000 C   0  0  0  0  0  0  0  0  0  0  0  0
    0.0000    0.0000    0.0000 C   0  0  0  0  0  0  0  0  0  0  0  0
    0.0000    0.0000    0.0000 C   0  0  0  0  0  0  0  0  0  0  0  0
    0.0000    0.0000    0.0000 C   0  0  0  0  0  0  0  0  0  0  0  0
    0.0000    0.0000    0.0000 C   0  0  0  0  0  0  0  0  0  0  0  0
    0.0000    0.0000    0.0000 C   0  0  0  0  0  0  0  0  0  0  0  0
    0.0000    0.0000    0.0000 C   0  0  0  0  0  0  0  0  0  0  0  0
    0.0000    0.0000    0.0000 C   0  0  0  0  0  0  0  0  0  0  0  0
    0.0000    0.0000    0.0000 C   0  0  0  0  0  0  0  0  0  0  0  0
    0.0000    0.0000    0.0000 C   0  0  0  0  0  0  0  0  0  0  0  0
    0.0000    0.0000    0.0000 C   0  0  0  0  0  0  0  0  0  0  0  0
    0.0000    0.0000    0.0000 C   0  0  0  0  0  0  0  0  0  0  0  0
    0.0000    0.0000    0.0000 C   0  0  0  0  0  0  0  0  0  0  0  0
    0.0000    0.0000    0.0000 C   0  0  0  0  0  0  0  0  0  0  0  0
    0.0000    0.0000    0.0000 F   0  0  0  0  0  0  0  0  0  0  0  0
    0.0000    0.0000    0.0000 F   0  0  0  0  0  0  0  0  0  0  0  0
    0.0000    0.0000    0.0000 F   0  0  0  0  0  0  0  0  0  0  0  0
  1  2  1  0
  2  3  1  0
  3  4  2  0
  3  5  1  0
  5  6  1  0
  6  7  1  0
  7  8  1  0
  8  9  1  0
  9 10  1  0
 10 11  1  0
 11 12  1  0
 12 13  1  0
 13 14  1  0
 14 15  1  0
 15 16  1  0
 16 17  1  0
  8 18  1  0
 18 19  1  0
  5 20  1  0
 20 21  2  0
 21 22  1  0
 22 23  2  0
 23 24  1  0
 24 25  2  0
 22 26  1  0
 26 27  1  0
 26 28  1  0
 26 29  1  0
 25  2  1  0
 19  5  1  0
 17 10  1  0
 25 20  1  0
M  END
>  <pIC50>  (268) 
5.28

>  <ChEMBL_ID>  (268) 
CHEMBL198600

>  <document_journal>  (268) 
Bioorg. Med. Chem. Lett.

>  <bao_endpoint>  (268) 
BAO_0000190

>  <potential_duplicate>  (268) 
False

>  <uo_units>  (268) 
UO_0000065

>  <canonical_smiles>  (268) 
CN1C(=O)C2(CCN(CC3CCCCCCC3)CC2)c4cc(ccc14)C(F)(F)F

>  <parent_molecule_chembl_id>  (268) 
CHEMBL198600

>  <assay_type>  (268) 
B

>  <src_id>  (268) 
1

>  <ligand_efficiency>  (268) 
{u'le': u'0.25', u'bei': u'12.91', u'sei': u'22.4', u'lle': u'-0.18'}

>  <standard_flag>  (268) 
True

>  <molecule_chembl_id>  (268) 
CHEMBL198600

>  <target_organism>  (268) 
Homo sapiens

>  <standard_units>  (268) 
nM

>  <record_id>  (268) 
405027

>  <document_chembl_id>  (268) 
CHEMBL1143642

>  <bao_format>  (268) 
BAO_0000219

>  <data_validity_description>  (268) 
None

>  <activity_id>  (268) 
1616903

>  <standard_type>  (268) 
IC50

>  <target_chembl_id>  (268) 
CHEMBL233

>  <data_validity_comment>  (268) 
None

>  <published_value>  (268) 
5.31

>  <document_year>  (268) 
2005

>  <target_pref_name>  (268) 
Mu opioid receptor

>  <assay_chembl_id>  (268) 
CHEMBL880418

>  <standard_relation>  (268) 
=

>  <assay_description>  (268) 
Binding affinity against human opioid receptor mu 1 expressed in HEK293 cells using [3H]DAMGO radioligand

>  <published_relation>  (268) 
=

>  <standard_value>  (268) 
5310

>  <qudt_units>  (268) 
http://www.openphacts.org/units/Nanomolar

>  <target_tax_id>  (268) 
9606

>  <bao_label>  (268) 
cell-based format

>  <published_units>  (268) 
uM

>  <pchembl_value>  (268) 
5.28

>  <published_type>  (268) 
IC50

>  <activity_comment>  (268) 
None

$$$$

     RDKit          

 26 29  0  0  0  0  0  0  0  0999 V2000
    0.0000    0.0000    0.0000 C   0  0  0  0  0  0  0  0  0  0  0  0
    0.0000    0.0000    0.0000 N   0  0  0  0  0  0  0  0  0  0  0  0
    0.0000    0.0000    0.0000 C   0  0  0  0  0  0  0  0  0  0  0  0
    0.0000    0.0000    0.0000 O   0  0  0  0  0  0  0  0  0  0  0  0
    0.0000    0.0000    0.0000 C   0  0  0  0  0  0  0  0  0  0  0  0
    0.0000    0.0000    0.0000 C   0  0  0  0  0  0  0  0  0  0  0  0
    0.0000    0.0000    0.0000 C   0  0  0  0  0  0  0  0  0  0  0  0
    0.0000    0.0000    0.0000 N   0  0  0  0  0  0  0  0  0  0  0  0
    0.0000    0.0000    0.0000 C   0  0  0  0  0  0  0  0  0  0  0  0
    0.0000    0.0000    0.0000 C   0  0  0  0  0  0  0  0  0  0  0  0
    0.0000    0.0000    0.0000 C   0  0  0  0  0  0  0  0  0  0  0  0
    0.0000    0.0000    0.0000 C   0  0  0  0  0  0  0  0  0  0  0  0
    0.0000    0.0000    0.0000 C   0  0  0  0  0  0  0  0  0  0  0  0
    0.0000    0.0000    0.0000 C   0  0  0  0  0  0  0  0  0  0  0  0
    0.0000    0.0000    0.0000 C   0  0  0  0  0  0  0  0  0  0  0  0
    0.0000    0.0000    0.0000 C   0  0  0  0  0  0  0  0  0  0  0  0
    0.0000    0.0000    0.0000 C   0  0  0  0  0  0  0  0  0  0  0  0
    0.0000    0.0000    0.0000 C   0  0  0  0  0  0  0  0  0  0  0  0
    0.0000    0.0000    0.0000 C   0  0  0  0  0  0  0  0  0  0  0  0
    0.0000    0.0000    0.0000 C   0  0  0  0  0  0  0  0  0  0  0  0
    0.0000    0.0000    0.0000 C   0  0  0  0  0  0  0  0  0  0  0  0
    0.0000    0.0000    0.0000 C   0  0  0  0  0  0  0  0  0  0  0  0
    0.0000    0.0000    0.0000 F   0  0  0  0  0  0  0  0  0  0  0  0
    0.0000    0.0000    0.0000 C   0  0  0  0  0  0  0  0  0  0  0  0
    0.0000    0.0000    0.0000 C   0  0  0  0  0  0  0  0  0  0  0  0
    0.0000    0.0000    0.0000 C   0  0  0  0  0  0  0  0  0  0  0  0
  1  2  1  0
  2  3  1  0
  3  4  2  0
  3  5  1  0
  5  6  1  0
  6  7  1  0
  7  8  1  0
  8  9  1  0
  9 10  1  0
 10 11  1  0
 11 12  1  0
 12 13  1  0
 13 14  1  0
 14 15  1  0
 15 16  1  0
 16 17  1  0
  8 18  1  0
 18 19  1  0
  5 20  1  0
 20 21  2  0
 21 22  1  0
 22 23  1  0
 22 24  2  0
 24 25  1  0
 25 26  2  0
 26  2  1  0
 19  5  1  0
 17 10  1  0
 26 20  1  0
M  END
>  <pIC50>  (269) 
6.0

>  <ChEMBL_ID>  (269) 
CHEMBL197727

>  <document_journal>  (269) 
Bioorg. Med. Chem. Lett.

>  <bao_endpoint>  (269) 
BAO_0000190

>  <potential_duplicate>  (269) 
False

>  <uo_units>  (269) 
UO_0000065

>  <canonical_smiles>  (269) 
CN1C(=O)C2(CCN(CC3CCCCCCC3)CC2)c4cc(F)ccc14

>  <parent_molecule_chembl_id>  (269) 
CHEMBL197727

>  <assay_type>  (269) 
B

>  <src_id>  (269) 
1

>  <ligand_efficiency>  (269) 
{u'le': u'0.31', u'bei': u'16.72', u'sei': u'25.46', u'lle': u'1.29'}

>  <standard_flag>  (269) 
True

>  <molecule_chembl_id>  (269) 
CHEMBL197727

>  <target_organism>  (269) 
Homo sapiens

>  <standard_units>  (269) 
nM

>  <record_id>  (269) 
405028

>  <document_chembl_id>  (269) 
CHEMBL1143642

>  <bao_format>  (269) 
BAO_0000219

>  <data_validity_description>  (269) 
None

>  <activity_id>  (269) 
1616908

>  <standard_type>  (269) 
IC50

>  <target_chembl_id>  (269) 
CHEMBL233

>  <data_validity_comment>  (269) 
None

>  <published_value>  (269) 
1.01

>  <document_year>  (269) 
2005

>  <target_pref_name>  (269) 
Mu opioid receptor

>  <assay_chembl_id>  (269) 
CHEMBL880418

>  <standard_relation>  (269) 
=

>  <assay_description>  (269) 
Binding affinity against human opioid receptor mu 1 expressed in HEK293 cells using [3H]DAMGO radioligand

>  <published_relation>  (269) 
=

>  <standard_value>  (269) 
1010

>  <qudt_units>  (269) 
http://www.openphacts.org/units/Nanomolar

>  <target_tax_id>  (269) 
9606

>  <bao_label>  (269) 
cell-based format

>  <published_units>  (269) 
uM

>  <pchembl_value>  (269) 
6

>  <published_type>  (269) 
IC50

>  <activity_comment>  (269) 
None

$$$$

     RDKit          

 28 31  0  0  0  0  0  0  0  0999 V2000
    0.0000    0.0000    0.0000 C   0  0  0  0  0  0  0  0  0  0  0  0
    0.0000    0.0000    0.0000 C   0  0  0  0  0  0  0  0  0  0  0  0
    0.0000    0.0000    0.0000 C   0  0  0  0  0  0  0  0  0  0  0  0
    0.0000    0.0000    0.0000 C   0  0  0  0  0  0  0  0  0  0  0  0
    0.0000    0.0000    0.0000 C   0  0  0  0  0  0  0  0  0  0  0  0
    0.0000    0.0000    0.0000 C   0  0  0  0  0  0  0  0  0  0  0  0
    0.0000    0.0000    0.0000 C   0  0  0  0  0  0  0  0  0  0  0  0
    0.0000    0.0000    0.0000 N   0  0  0  0  0  0  0  0  0  0  0  0
    0.0000    0.0000    0.0000 C   0  0  0  0  0  0  0  0  0  0  0  0
    0.0000    0.0000    0.0000 C   0  0  0  0  0  0  0  0  0  0  0  0
    0.0000    0.0000    0.0000 O   0  0  0  0  0  0  0  0  0  0  0  0
    0.0000    0.0000    0.0000 C   0  0  0  0  0  0  0  0  0  0  0  0
    0.0000    0.0000    0.0000 C   0  0  0  0  0  0  0  0  0  0  0  0
    0.0000    0.0000    0.0000 C   0  0  0  0  0  0  0  0  0  0  0  0
    0.0000    0.0000    0.0000 N   0  0  0  0  0  0  0  0  0  0  0  0
    0.0000    0.0000    0.0000 C   0  0  0  0  0  0  0  0  0  0  0  0
    0.0000    0.0000    0.0000 C   0  0  0  0  0  0  0  0  0  0  0  0
    0.0000    0.0000    0.0000 C   0  0  0  0  0  0  0  0  0  0  0  0
    0.0000    0.0000    0.0000 C   0  0  0  0  0  0  0  0  0  0  0  0
    0.0000    0.0000    0.0000 C   0  0  0  0  0  0  0  0  0  0  0  0
    0.0000    0.0000    0.0000 C   0  0  0  0  0  0  0  0  0  0  0  0
    0.0000    0.0000    0.0000 C   0  0  0  0  0  0  0  0  0  0  0  0
    0.0000    0.0000    0.0000 C   0  0  0  0  0  0  0  0  0  0  0  0
    0.0000    0.0000    0.0000 C   0  0  0  0  0  0  0  0  0  0  0  0
    0.0000    0.0000    0.0000 C   0  0  0  0  0  0  0  0  0  0  0  0
    0.0000    0.0000    0.0000 C   0  0  0  0  0  0  0  0  0  0  0  0
    0.0000    0.0000    0.0000 C   0  0  0  0  0  0  0  0  0  0  0  0
    0.0000    0.0000    0.0000 C   0  0  0  0  0  0  0  0  0  0  0  0
  1  2  1  0
  2  3  1  0
  2  4  1  0
  4  5  2  0
  5  6  1  0
  6  7  2  0
  7  8  1  0
  8  9  1  0
  8 10  1  0
 10 11  2  0
 10 12  1  0
 12 13  1  0
 13 14  1  0
 14 15  1  0
 15 16  1  0
 16 17  1  0
 17 18  1  0
 18 19  1  0
 19 20  1  0
 20 21  1  0
 21 22  1  0
 22 23  1  0
 23 24  1  0
 15 25  1  0
 25 26  1  0
 12 27  1  0
 27 28  2  0
 28  4  1  0
 27  7  1  0
 26 12  1  0
 24 17  1  0
M  END
>  <pIC50>  (270) 
6.01

>  <ChEMBL_ID>  (270) 
CHEMBL197895

>  <document_journal>  (270) 
Bioorg. Med. Chem. Lett.

>  <bao_endpoint>  (270) 
BAO_0000190

>  <potential_duplicate>  (270) 
False

>  <uo_units>  (270) 
UO_0000065

>  <canonical_smiles>  (270) 
CC(C)c1ccc2N(C)C(=O)C3(CCN(CC4CCCCCCC4)CC3)c2c1

>  <parent_molecule_chembl_id>  (270) 
CHEMBL197895

>  <assay_type>  (270) 
B

>  <src_id>  (270) 
1

>  <ligand_efficiency>  (270) 
{u'le': u'0.29', u'bei': u'15.71', u'sei': u'25.51', u'lle': u'0.31'}

>  <standard_flag>  (270) 
True

>  <molecule_chembl_id>  (270) 
CHEMBL197895

>  <target_organism>  (270) 
Homo sapiens

>  <standard_units>  (270) 
nM

>  <record_id>  (270) 
405030

>  <document_chembl_id>  (270) 
CHEMBL1143642

>  <bao_format>  (270) 
BAO_0000219

>  <data_validity_description>  (270) 
None

>  <activity_id>  (270) 
1616918

>  <standard_type>  (270) 
IC50

>  <target_chembl_id>  (270) 
CHEMBL233

>  <data_validity_comment>  (270) 
None

>  <published_value>  (270) 
0.98

>  <document_year>  (270) 
2005

>  <target_pref_name>  (270) 
Mu opioid receptor

>  <assay_chembl_id>  (270) 
CHEMBL880418

>  <standard_relation>  (270) 
=

>  <assay_description>  (270) 
Binding affinity against human opioid receptor mu 1 expressed in HEK293 cells using [3H]DAMGO radioligand

>  <published_relation>  (270) 
=

>  <standard_value>  (270) 
980

>  <qudt_units>  (270) 
http://www.openphacts.org/units/Nanomolar

>  <target_tax_id>  (270) 
9606

>  <bao_label>  (270) 
cell-based format

>  <published_units>  (270) 
uM

>  <pchembl_value>  (270) 
6.01

>  <published_type>  (270) 
IC50

>  <activity_comment>  (270) 
None

$$$$

     RDKit          

 29 33  0  0  0  0  0  0  0  0999 V2000
    0.0000    0.0000    0.0000 O   0  0  0  0  0  0  0  0  0  0  0  0
    0.0000    0.0000    0.0000 C   0  0  0  0  0  0  0  0  0  0  0  0
    0.0000    0.0000    0.0000 N   0  0  0  0  0  0  0  0  0  0  0  0
    0.0000    0.0000    0.0000 C   0  0  0  0  0  0  0  0  0  0  0  0
    0.0000    0.0000    0.0000 N   0  0  0  0  0  0  0  0  0  0  0  0
    0.0000    0.0000    0.0000 C   0  0  0  0  0  0  0  0  0  0  0  0
    0.0000    0.0000    0.0000 C   0  0  0  0  0  0  0  0  0  0  0  0
    0.0000    0.0000    0.0000 C   0  0  0  0  0  0  0  0  0  0  0  0
    0.0000    0.0000    0.0000 C   0  0  0  0  0  0  0  0  0  0  0  0
    0.0000    0.0000    0.0000 C   0  0  0  0  0  0  0  0  0  0  0  0
    0.0000    0.0000    0.0000 C   0  0  0  0  0  0  0  0  0  0  0  0
    0.0000    0.0000    0.0000 C   0  0  0  0  0  0  0  0  0  0  0  0
    0.0000    0.0000    0.0000 C   0  0  0  0  0  0  0  0  0  0  0  0
    0.0000    0.0000    0.0000 C   0  0  0  0  0  0  0  0  0  0  0  0
    0.0000    0.0000    0.0000 N   0  0  0  0  0  0  0  0  0  0  0  0
    0.0000    0.0000    0.0000 C   0  0  0  0  0  0  0  0  0  0  0  0
    0.0000    0.0000    0.0000 C   0  0  0  0  0  0  0  0  0  0  0  0
    0.0000    0.0000    0.0000 C   0  0  0  0  0  0  0  0  0  0  0  0
    0.0000    0.0000    0.0000 C   0  0  0  0  0  0  0  0  0  0  0  0
    0.0000    0.0000    0.0000 C   0  0  0  0  0  0  0  0  0  0  0  0
    0.0000    0.0000    0.0000 C   0  0  0  0  0  0  0  0  0  0  0  0
    0.0000    0.0000    0.0000 C   0  0  0  0  0  0  0  0  0  0  0  0
    0.0000    0.0000    0.0000 C   0  0  0  0  0  0  0  0  0  0  0  0
    0.0000    0.0000    0.0000 C   0  0  0  0  0  0  0  0  0  0  0  0
    0.0000    0.0000    0.0000 C   0  0  0  0  0  0  0  0  0  0  0  0
    0.0000    0.0000    0.0000 C   0  0  0  0  0  0  0  0  0  0  0  0
    0.0000    0.0000    0.0000 C   0  0  0  0  0  0  0  0  0  0  0  0
    0.0000    0.0000    0.0000 C   0  0  0  0  0  0  0  0  0  0  0  0
    0.0000    0.0000    0.0000 C   0  0  0  0  0  0  0  0  0  0  0  0
  1  2  2  0
  2  3  1  0
  3  4  1  0
  4  5  1  0
  5  6  1  0
  6  7  2  0
  7  8  1  0
  8  9  2  0
  9 10  1  0
 10 11  2  0
  5 12  1  0
 12 13  1  0
 13 14  1  0
 14 15  1  0
 15 16  1  0
 16 17  1  0
 15 18  1  0
 18 19  1  0
 19 20  1  0
 20 21  1  0
 21 22  1  0
 22 23  1  0
 23 24  1  0
 24 25  2  0
 25 26  1  0
 26 27  2  0
 27 28  1  0
 28 29  2  0
 12  2  1  0
 11  6  1  0
 17 12  1  0
 23 18  1  0
 29 24  1  0
M  END
>  <pIC50>  (271) 
6.82

>  <ChEMBL_ID>  (271) 
CHEMBL383610

>  <document_journal>  (271) 
Bioorg. Med. Chem. Lett.

>  <bao_endpoint>  (271) 
BAO_0000190

>  <potential_duplicate>  (271) 
True

>  <uo_units>  (271) 
UO_0000065

>  <canonical_smiles>  (271) 
O=C1NCN(c2ccccc2)C13CCN(CC3)[C@H]4CCCC[C@H]4c5ccccc5

>  <parent_molecule_chembl_id>  (271) 
CHEMBL383610

>  <assay_type>  (271) 
B

>  <src_id>  (271) 
1

>  <ligand_efficiency>  (271) 
{u'le': u'0.32', u'bei': u'17.52', u'sei': u'19.18', u'lle': u'2.58'}

>  <standard_flag>  (271) 
True

>  <molecule_chembl_id>  (271) 
CHEMBL383610

>  <target_organism>  (271) 
Homo sapiens

>  <standard_units>  (271) 
nM

>  <record_id>  (271) 
412891

>  <document_chembl_id>  (271) 
CHEMBL1147765

>  <bao_format>  (271) 
BAO_0000219

>  <data_validity_description>  (271) 
None

>  <activity_id>  (271) 
1665894

>  <standard_type>  (271) 
IC50

>  <target_chembl_id>  (271) 
CHEMBL233

>  <data_validity_comment>  (271) 
None

>  <published_value>  (271) 
0.15

>  <document_year>  (271) 
2006

>  <target_pref_name>  (271) 
Mu opioid receptor

>  <assay_chembl_id>  (271) 
CHEMBL860261

>  <standard_relation>  (271) 
=

>  <assay_description>  (271) 
Displacement of [3H]naloxone from human mu opioid receptor expressed in BHK cells

>  <published_relation>  (271) 
=

>  <standard_value>  (271) 
150

>  <qudt_units>  (271) 
http://www.openphacts.org/units/Nanomolar

>  <target_tax_id>  (271) 
9606

>  <bao_label>  (271) 
cell-based format

>  <published_units>  (271) 
uM

>  <pchembl_value>  (271) 
6.82

>  <published_type>  (271) 
IC50

>  <activity_comment>  (271) 
None

$$$$

     RDKit          

 33 37  0  0  0  0  0  0  0  0999 V2000
    0.0000    0.0000    0.0000 C   0  0  0  0  0  0  0  0  0  0  0  0
    0.0000    0.0000    0.0000 O   0  0  0  0  0  0  0  0  0  0  0  0
    0.0000    0.0000    0.0000 C   0  0  0  0  0  0  0  0  0  0  0  0
    0.0000    0.0000    0.0000 C   0  0  0  0  0  0  0  0  0  0  0  0
    0.0000    0.0000    0.0000 C   0  0  0  0  0  0  0  0  0  0  0  0
    0.0000    0.0000    0.0000 C   0  0  0  0  0  0  0  0  0  0  0  0
    0.0000    0.0000    0.0000 C   0  0  0  0  0  0  0  0  0  0  0  0
    0.0000    0.0000    0.0000 C   0  0  0  0  0  0  0  0  0  0  0  0
    0.0000    0.0000    0.0000 N   0  0  0  0  0  0  0  0  0  0  0  0
    0.0000    0.0000    0.0000 C   0  0  0  0  0  0  0  0  0  0  0  0
    0.0000    0.0000    0.0000 N   0  0  0  0  0  0  0  0  0  0  0  0
    0.0000    0.0000    0.0000 C   0  0  0  0  0  0  0  0  0  0  0  0
    0.0000    0.0000    0.0000 O   0  0  0  0  0  0  0  0  0  0  0  0
    0.0000    0.0000    0.0000 C   0  0  0  0  0  0  0  0  0  0  0  0
    0.0000    0.0000    0.0000 C   0  0  0  0  0  0  0  0  0  0  0  0
    0.0000    0.0000    0.0000 C   0  0  0  0  0  0  0  0  0  0  0  0
    0.0000    0.0000    0.0000 N   0  0  0  0  0  0  0  0  0  0  0  0
    0.0000    0.0000    0.0000 C   0  0  0  0  0  0  0  0  0  0  0  0
    0.0000    0.0000    0.0000 C   0  0  0  0  0  0  0  0  0  0  0  0
    0.0000    0.0000    0.0000 C   0  0  0  0  0  0  0  0  0  0  0  0
    0.0000    0.0000    0.0000 C   0  0  0  0  0  0  0  0  0  0  0  0
    0.0000    0.0000    0.0000 C   0  0  0  0  0  0  0  0  0  0  0  0
    0.0000    0.0000    0.0000 C   0  0  0  0  0  0  0  0  0  0  0  0
    0.0000    0.0000    0.0000 C   0  0  0  0  0  0  0  0  0  0  0  0
    0.0000    0.0000    0.0000 C   0  0  0  0  0  0  0  0  0  0  0  0
    0.0000    0.0000    0.0000 O   0  0  0  0  0  0  0  0  0  0  0  0
    0.0000    0.0000    0.0000 C   0  0  0  0  0  0  0  0  0  0  0  0
    0.0000    0.0000    0.0000 C   0  0  0  0  0  0  0  0  0  0  0  0
    0.0000    0.0000    0.0000 C   0  0  0  0  0  0  0  0  0  0  0  0
    0.0000    0.0000    0.0000 C   0  0  0  0  0  0  0  0  0  0  0  0
    0.0000    0.0000    0.0000 Cl  0  0  0  0  0  0  0  0  0  0  0  0
    0.0000    0.0000    0.0000 C   0  0  0  0  0  0  0  0  0  0  0  0
    0.0000    0.0000    0.0000 C   0  0  0  0  0  0  0  0  0  0  0  0
  1  2  1  0
  2  3  1  0
  3  4  2  0
  4  5  1  0
  5  6  2  0
  6  7  1  0
  7  8  2  0
  6  9  1  0
  9 10  1  0
 10 11  1  0
 11 12  1  0
 12 13  2  0
 12 14  1  0
 14 15  1  0
 15 16  1  0
 16 17  1  0
 17 18  1  0
 18 19  1  0
 17 20  1  0
 20 21  1  0
 21 22  1  0
 22 23  1  0
 23 24  1  0
 24 25  1  0
 25 26  1  0
 25 27  1  0
 27 28  2  0
 28 29  1  0
 29 30  2  0
 30 31  1  0
 30 32  1  0
 32 33  2  0
  8  3  1  0
 14  9  1  0
 19 14  1  0
 25 20  1  0
 33 27  1  0
M  END
>  <pIC50>  (272) 
5.36

>  <ChEMBL_ID>  (272) 
CHEMBL200621

>  <document_journal>  (272) 
Bioorg. Med. Chem. Lett.

>  <bao_endpoint>  (272) 
BAO_0000190

>  <potential_duplicate>  (272) 
False

>  <uo_units>  (272) 
UO_0000065

>  <canonical_smiles>  (272) 
COc1ccc(cc1)N2CNC(=O)C23CCN(CC3)[C@@H]4CCCC[C@@]4(O)c5ccc(Cl)cc5

>  <parent_molecule_chembl_id>  (272) 
CHEMBL200621

>  <assay_type>  (272) 
B

>  <src_id>  (272) 
1

>  <ligand_efficiency>  (272) 
{u'le': u'0.22', u'bei': u'11.4', u'sei': u'8.24', u'lle': u'1.35'}

>  <standard_flag>  (272) 
True

>  <molecule_chembl_id>  (272) 
CHEMBL200621

>  <target_organism>  (272) 
Homo sapiens

>  <standard_units>  (272) 
nM

>  <record_id>  (272) 
412914

>  <document_chembl_id>  (272) 
CHEMBL1147765

>  <bao_format>  (272) 
BAO_0000219

>  <data_validity_description>  (272) 
None

>  <activity_id>  (272) 
1665897

>  <standard_type>  (272) 
IC50

>  <target_chembl_id>  (272) 
CHEMBL233

>  <data_validity_comment>  (272) 
None

>  <published_value>  (272) 
4.4

>  <document_year>  (272) 
2006

>  <target_pref_name>  (272) 
Mu opioid receptor

>  <assay_chembl_id>  (272) 
CHEMBL860261

>  <standard_relation>  (272) 
=

>  <assay_description>  (272) 
Displacement of [3H]naloxone from human mu opioid receptor expressed in BHK cells

>  <published_relation>  (272) 
=

>  <standard_value>  (272) 
4400

>  <qudt_units>  (272) 
http://www.openphacts.org/units/Nanomolar

>  <target_tax_id>  (272) 
9606

>  <bao_label>  (272) 
cell-based format

>  <published_units>  (272) 
uM

>  <pchembl_value>  (272) 
5.36

>  <published_type>  (272) 
IC50

>  <activity_comment>  (272) 
None

$$$$

     RDKit          

 32 36  0  0  0  0  0  0  0  0999 V2000
    0.0000    0.0000    0.0000 O   0  0  0  0  0  0  0  0  0  0  0  0
    0.0000    0.0000    0.0000 C   0  0  0  0  0  0  0  0  0  0  0  0
    0.0000    0.0000    0.0000 C   0  0  0  0  0  0  0  0  0  0  0  0
    0.0000    0.0000    0.0000 C   0  0  0  0  0  0  0  0  0  0  0  0
    0.0000    0.0000    0.0000 C   0  0  0  0  0  0  0  0  0  0  0  0
    0.0000    0.0000    0.0000 C   0  0  0  0  0  0  0  0  0  0  0  0
    0.0000    0.0000    0.0000 C   0  0  0  0  0  0  0  0  0  0  0  0
    0.0000    0.0000    0.0000 N   0  0  0  0  0  0  0  0  0  0  0  0
    0.0000    0.0000    0.0000 C   0  0  0  0  0  0  0  0  0  0  0  0
    0.0000    0.0000    0.0000 C   0  0  0  0  0  0  0  0  0  0  0  0
    0.0000    0.0000    0.0000 C   0  0  0  0  0  0  0  0  0  0  0  0
    0.0000    0.0000    0.0000 C   0  0  0  0  0  0  0  0  0  0  0  0
    0.0000    0.0000    0.0000 C   0  0  0  0  0  0  0  0  0  0  0  0
    0.0000    0.0000    0.0000 N   0  0  0  0  0  0  0  0  0  0  0  0
    0.0000    0.0000    0.0000 C   0  0  0  0  0  0  0  0  0  0  0  0
    0.0000    0.0000    0.0000 N   0  0  0  0  0  0  0  0  0  0  0  0
    0.0000    0.0000    0.0000 C   0  0  0  0  0  0  0  0  0  0  0  0
    0.0000    0.0000    0.0000 O   0  0  0  0  0  0  0  0  0  0  0  0
    0.0000    0.0000    0.0000 C   0  0  0  0  0  0  0  0  0  0  0  0
    0.0000    0.0000    0.0000 C   0  0  0  0  0  0  0  0  0  0  0  0
    0.0000    0.0000    0.0000 C   0  0  0  0  0  0  0  0  0  0  0  0
    0.0000    0.0000    0.0000 C   0  0  0  0  0  0  0  0  0  0  0  0
    0.0000    0.0000    0.0000 F   0  0  0  0  0  0  0  0  0  0  0  0
    0.0000    0.0000    0.0000 C   0  0  0  0  0  0  0  0  0  0  0  0
    0.0000    0.0000    0.0000 C   0  0  0  0  0  0  0  0  0  0  0  0
    0.0000    0.0000    0.0000 C   0  0  0  0  0  0  0  0  0  0  0  0
    0.0000    0.0000    0.0000 C   0  0  0  0  0  0  0  0  0  0  0  0
    0.0000    0.0000    0.0000 C   0  0  0  0  0  0  0  0  0  0  0  0
    0.0000    0.0000    0.0000 C   0  0  0  0  0  0  0  0  0  0  0  0
    0.0000    0.0000    0.0000 Cl  0  0  0  0  0  0  0  0  0  0  0  0
    0.0000    0.0000    0.0000 C   0  0  0  0  0  0  0  0  0  0  0  0
    0.0000    0.0000    0.0000 C   0  0  0  0  0  0  0  0  0  0  0  0
  1  2  1  0
  2  3  1  0
  3  4  1  0
  4  5  1  0
  5  6  1  0
  6  7  1  0
  7  8  1  0
  8  9  1  0
  9 10  1  0
 10 11  1  0
 11 12  1  0
 12 13  1  0
 11 14  1  0
 14 15  1  0
 15 16  1  0
 16 17  1  0
 17 18  2  0
 14 19  1  0
 19 20  2  0
 20 21  1  0
 21 22  2  0
 22 23  1  0
 22 24  1  0
 24 25  2  0
  2 26  1  0
 26 27  2  0
 27 28  1  0
 28 29  2  0
 29 30  1  0
 29 31  1  0
 31 32  2  0
  7  2  1  0
 13  8  1  0
 17 11  1  0
 25 19  1  0
 32 26  1  0
M  END
>  <pIC50>  (273) 
5.62

>  <ChEMBL_ID>  (273) 
CHEMBL372567

>  <document_journal>  (273) 
Bioorg. Med. Chem. Lett.

>  <bao_endpoint>  (273) 
BAO_0000190

>  <potential_duplicate>  (273) 
False

>  <uo_units>  (273) 
UO_0000065

>  <canonical_smiles>  (273) 
O[C@]1(CCCC[C@H]1N2CCC3(CC2)N(CNC3=O)c4ccc(F)cc4)c5ccc(Cl)cc5

>  <parent_molecule_chembl_id>  (273) 
CHEMBL372567

>  <assay_type>  (273) 
B

>  <src_id>  (273) 
1

>  <ligand_efficiency>  (273) 
{u'le': u'0.24', u'bei': u'12.27', u'sei': u'10.07', u'lle': u'1.39'}

>  <standard_flag>  (273) 
True

>  <molecule_chembl_id>  (273) 
CHEMBL372567

>  <target_organism>  (273) 
Homo sapiens

>  <standard_units>  (273) 
nM

>  <record_id>  (273) 
412913

>  <document_chembl_id>  (273) 
CHEMBL1147765

>  <bao_format>  (273) 
BAO_0000219

>  <data_validity_description>  (273) 
None

>  <activity_id>  (273) 
1665898

>  <standard_type>  (273) 
IC50

>  <target_chembl_id>  (273) 
CHEMBL233

>  <data_validity_comment>  (273) 
None

>  <published_value>  (273) 
2.4

>  <document_year>  (273) 
2006

>  <target_pref_name>  (273) 
Mu opioid receptor

>  <assay_chembl_id>  (273) 
CHEMBL860261

>  <standard_relation>  (273) 
=

>  <assay_description>  (273) 
Displacement of [3H]naloxone from human mu opioid receptor expressed in BHK cells

>  <published_relation>  (273) 
=

>  <standard_value>  (273) 
2400

>  <qudt_units>  (273) 
http://www.openphacts.org/units/Nanomolar

>  <target_tax_id>  (273) 
9606

>  <bao_label>  (273) 
cell-based format

>  <published_units>  (273) 
uM

>  <pchembl_value>  (273) 
5.62

>  <published_type>  (273) 
IC50

>  <activity_comment>  (273) 
None

$$$$

     RDKit          

 32 36  0  0  0  0  0  0  0  0999 V2000
    0.0000    0.0000    0.0000 O   0  0  0  0  0  0  0  0  0  0  0  0
    0.0000    0.0000    0.0000 C   0  0  0  0  0  0  0  0  0  0  0  0
    0.0000    0.0000    0.0000 C   0  0  0  0  0  0  0  0  0  0  0  0
    0.0000    0.0000    0.0000 C   0  0  0  0  0  0  0  0  0  0  0  0
    0.0000    0.0000    0.0000 C   0  0  0  0  0  0  0  0  0  0  0  0
    0.0000    0.0000    0.0000 C   0  0  0  0  0  0  0  0  0  0  0  0
    0.0000    0.0000    0.0000 C   0  0  0  0  0  0  0  0  0  0  0  0
    0.0000    0.0000    0.0000 N   0  0  0  0  0  0  0  0  0  0  0  0
    0.0000    0.0000    0.0000 C   0  0  0  0  0  0  0  0  0  0  0  0
    0.0000    0.0000    0.0000 C   0  0  0  0  0  0  0  0  0  0  0  0
    0.0000    0.0000    0.0000 C   0  0  0  0  0  0  0  0  0  0  0  0
    0.0000    0.0000    0.0000 C   0  0  0  0  0  0  0  0  0  0  0  0
    0.0000    0.0000    0.0000 C   0  0  0  0  0  0  0  0  0  0  0  0
    0.0000    0.0000    0.0000 N   0  0  0  0  0  0  0  0  0  0  0  0
    0.0000    0.0000    0.0000 C   0  0  0  0  0  0  0  0  0  0  0  0
    0.0000    0.0000    0.0000 N   0  0  0  0  0  0  0  0  0  0  0  0
    0.0000    0.0000    0.0000 C   0  0  0  0  0  0  0  0  0  0  0  0
    0.0000    0.0000    0.0000 O   0  0  0  0  0  0  0  0  0  0  0  0
    0.0000    0.0000    0.0000 C   0  0  0  0  0  0  0  0  0  0  0  0
    0.0000    0.0000    0.0000 C   0  0  0  0  0  0  0  0  0  0  0  0
    0.0000    0.0000    0.0000 C   0  0  0  0  0  0  0  0  0  0  0  0
    0.0000    0.0000    0.0000 C   0  0  0  0  0  0  0  0  0  0  0  0
    0.0000    0.0000    0.0000 Cl  0  0  0  0  0  0  0  0  0  0  0  0
    0.0000    0.0000    0.0000 C   0  0  0  0  0  0  0  0  0  0  0  0
    0.0000    0.0000    0.0000 C   0  0  0  0  0  0  0  0  0  0  0  0
    0.0000    0.0000    0.0000 C   0  0  0  0  0  0  0  0  0  0  0  0
    0.0000    0.0000    0.0000 C   0  0  0  0  0  0  0  0  0  0  0  0
    0.0000    0.0000    0.0000 C   0  0  0  0  0  0  0  0  0  0  0  0
    0.0000    0.0000    0.0000 C   0  0  0  0  0  0  0  0  0  0  0  0
    0.0000    0.0000    0.0000 F   0  0  0  0  0  0  0  0  0  0  0  0
    0.0000    0.0000    0.0000 C   0  0  0  0  0  0  0  0  0  0  0  0
    0.0000    0.0000    0.0000 C   0  0  0  0  0  0  0  0  0  0  0  0
  1  2  1  0
  2  3  1  0
  3  4  1  0
  4  5  1  0
  5  6  1  0
  6  7  1  0
  7  8  1  0
  8  9  1  0
  9 10  1  0
 10 11  1  0
 11 12  1  0
 12 13  1  0
 11 14  1  0
 14 15  1  0
 15 16  1  0
 16 17  1  0
 17 18  2  0
 14 19  1  0
 19 20  2  0
 20 21  1  0
 21 22  2  0
 22 23  1  0
 22 24  1  0
 24 25  2  0
  2 26  1  0
 26 27  2  0
 27 28  1  0
 28 29  2  0
 29 30  1  0
 29 31  1  0
 31 32  2  0
  7  2  1  0
 13  8  1  0
 17 11  1  0
 25 19  1  0
 32 26  1  0
M  END
>  <pIC50>  (274) 
5.66

>  <ChEMBL_ID>  (274) 
CHEMBL200883

>  <document_journal>  (274) 
Bioorg. Med. Chem. Lett.

>  <bao_endpoint>  (274) 
BAO_0000190

>  <potential_duplicate>  (274) 
False

>  <uo_units>  (274) 
UO_0000065

>  <canonical_smiles>  (274) 
O[C@]1(CCCC[C@H]1N2CCC3(CC2)N(CNC3=O)c4ccc(Cl)cc4)c5ccc(F)cc5

>  <parent_molecule_chembl_id>  (274) 
CHEMBL200883

>  <assay_type>  (274) 
B

>  <src_id>  (274) 
1

>  <ligand_efficiency>  (274) 
{u'le': u'0.24', u'bei': u'12.35', u'sei': u'10.14', u'lle': u'1.43'}

>  <standard_flag>  (274) 
True

>  <molecule_chembl_id>  (274) 
CHEMBL200883

>  <target_organism>  (274) 
Homo sapiens

>  <standard_units>  (274) 
nM

>  <record_id>  (274) 
412912

>  <document_chembl_id>  (274) 
CHEMBL1147765

>  <bao_format>  (274) 
BAO_0000219

>  <data_validity_description>  (274) 
None

>  <activity_id>  (274) 
1665899

>  <standard_type>  (274) 
IC50

>  <target_chembl_id>  (274) 
CHEMBL233

>  <data_validity_comment>  (274) 
None

>  <published_value>  (274) 
2.2

>  <document_year>  (274) 
2006

>  <target_pref_name>  (274) 
Mu opioid receptor

>  <assay_chembl_id>  (274) 
CHEMBL860261

>  <standard_relation>  (274) 
=

>  <assay_description>  (274) 
Displacement of [3H]naloxone from human mu opioid receptor expressed in BHK cells

>  <published_relation>  (274) 
=

>  <standard_value>  (274) 
2200

>  <qudt_units>  (274) 
http://www.openphacts.org/units/Nanomolar

>  <target_tax_id>  (274) 
9606

>  <bao_label>  (274) 
cell-based format

>  <published_units>  (274) 
uM

>  <pchembl_value>  (274) 
5.66

>  <published_type>  (274) 
IC50

>  <activity_comment>  (274) 
None

$$$$

     RDKit          

 32 36  0  0  0  0  0  0  0  0999 V2000
    0.0000    0.0000    0.0000 O   0  0  0  0  0  0  0  0  0  0  0  0
    0.0000    0.0000    0.0000 C   0  0  0  0  0  0  0  0  0  0  0  0
    0.0000    0.0000    0.0000 C   0  0  0  0  0  0  0  0  0  0  0  0
    0.0000    0.0000    0.0000 C   0  0  0  0  0  0  0  0  0  0  0  0
    0.0000    0.0000    0.0000 C   0  0  0  0  0  0  0  0  0  0  0  0
    0.0000    0.0000    0.0000 C   0  0  0  0  0  0  0  0  0  0  0  0
    0.0000    0.0000    0.0000 C   0  0  0  0  0  0  0  0  0  0  0  0
    0.0000    0.0000    0.0000 N   0  0  0  0  0  0  0  0  0  0  0  0
    0.0000    0.0000    0.0000 C   0  0  0  0  0  0  0  0  0  0  0  0
    0.0000    0.0000    0.0000 C   0  0  0  0  0  0  0  0  0  0  0  0
    0.0000    0.0000    0.0000 C   0  0  0  0  0  0  0  0  0  0  0  0
    0.0000    0.0000    0.0000 C   0  0  0  0  0  0  0  0  0  0  0  0
    0.0000    0.0000    0.0000 C   0  0  0  0  0  0  0  0  0  0  0  0
    0.0000    0.0000    0.0000 N   0  0  0  0  0  0  0  0  0  0  0  0
    0.0000    0.0000    0.0000 C   0  0  0  0  0  0  0  0  0  0  0  0
    0.0000    0.0000    0.0000 N   0  0  0  0  0  0  0  0  0  0  0  0
    0.0000    0.0000    0.0000 C   0  0  0  0  0  0  0  0  0  0  0  0
    0.0000    0.0000    0.0000 O   0  0  0  0  0  0  0  0  0  0  0  0
    0.0000    0.0000    0.0000 C   0  0  0  0  0  0  0  0  0  0  0  0
    0.0000    0.0000    0.0000 C   0  0  0  0  0  0  0  0  0  0  0  0
    0.0000    0.0000    0.0000 C   0  0  0  0  0  0  0  0  0  0  0  0
    0.0000    0.0000    0.0000 C   0  0  0  0  0  0  0  0  0  0  0  0
    0.0000    0.0000    0.0000 F   0  0  0  0  0  0  0  0  0  0  0  0
    0.0000    0.0000    0.0000 C   0  0  0  0  0  0  0  0  0  0  0  0
    0.0000    0.0000    0.0000 C   0  0  0  0  0  0  0  0  0  0  0  0
    0.0000    0.0000    0.0000 C   0  0  0  0  0  0  0  0  0  0  0  0
    0.0000    0.0000    0.0000 C   0  0  0  0  0  0  0  0  0  0  0  0
    0.0000    0.0000    0.0000 C   0  0  0  0  0  0  0  0  0  0  0  0
    0.0000    0.0000    0.0000 C   0  0  0  0  0  0  0  0  0  0  0  0
    0.0000    0.0000    0.0000 F   0  0  0  0  0  0  0  0  0  0  0  0
    0.0000    0.0000    0.0000 C   0  0  0  0  0  0  0  0  0  0  0  0
    0.0000    0.0000    0.0000 C   0  0  0  0  0  0  0  0  0  0  0  0
  1  2  1  0
  2  3  1  0
  3  4  1  0
  4  5  1  0
  5  6  1  0
  6  7  1  0
  7  8  1  0
  8  9  1  0
  9 10  1  0
 10 11  1  0
 11 12  1  0
 12 13  1  0
 11 14  1  0
 14 15  1  0
 15 16  1  0
 16 17  1  0
 17 18  2  0
 14 19  1  0
 19 20  2  0
 20 21  1  0
 21 22  2  0
 22 23  1  0
 22 24  1  0
 24 25  2  0
  2 26  1  0
 26 27  2  0
 27 28  1  0
 28 29  2  0
 29 30  1  0
 29 31  1  0
 31 32  2  0
  7  2  1  0
 13  8  1  0
 17 11  1  0
 25 19  1  0
 32 26  1  0
M  END
>  <pIC50>  (275) 
5.4

>  <ChEMBL_ID>  (275) 
CHEMBL436295

>  <document_journal>  (275) 
Bioorg. Med. Chem. Lett.

>  <bao_endpoint>  (275) 
BAO_0000190

>  <potential_duplicate>  (275) 
False

>  <uo_units>  (275) 
UO_0000065

>  <canonical_smiles>  (275) 
O[C@]1(CCCC[C@H]1N2CCC3(CC2)N(CNC3=O)c4ccc(F)cc4)c5ccc(F)cc5

>  <parent_molecule_chembl_id>  (275) 
CHEMBL436295

>  <assay_type>  (275) 
B

>  <src_id>  (275) 
1

>  <ligand_efficiency>  (275) 
{u'le': u'0.23', u'bei': u'12.23', u'sei': u'9.67', u'lle': u'1.62'}

>  <standard_flag>  (275) 
True

>  <molecule_chembl_id>  (275) 
CHEMBL436295

>  <target_organism>  (275) 
Homo sapiens

>  <standard_units>  (275) 
nM

>  <record_id>  (275) 
412911

>  <document_chembl_id>  (275) 
CHEMBL1147765

>  <bao_format>  (275) 
BAO_0000219

>  <data_validity_description>  (275) 
None

>  <activity_id>  (275) 
1665900

>  <standard_type>  (275) 
IC50

>  <target_chembl_id>  (275) 
CHEMBL233

>  <data_validity_comment>  (275) 
None

>  <published_value>  (275) 
4

>  <document_year>  (275) 
2006

>  <target_pref_name>  (275) 
Mu opioid receptor

>  <assay_chembl_id>  (275) 
CHEMBL860261

>  <standard_relation>  (275) 
=

>  <assay_description>  (275) 
Displacement of [3H]naloxone from human mu opioid receptor expressed in BHK cells

>  <published_relation>  (275) 
=

>  <standard_value>  (275) 
4000

>  <qudt_units>  (275) 
http://www.openphacts.org/units/Nanomolar

>  <target_tax_id>  (275) 
9606

>  <bao_label>  (275) 
cell-based format

>  <published_units>  (275) 
uM

>  <pchembl_value>  (275) 
5.4

>  <published_type>  (275) 
IC50

>  <activity_comment>  (275) 
None

$$$$

     RDKit          

 30 34  0  0  0  0  0  0  0  0999 V2000
    0.0000    0.0000    0.0000 O   0  0  0  0  0  0  0  0  0  0  0  0
    0.0000    0.0000    0.0000 C   0  0  0  0  0  0  0  0  0  0  0  0
    0.0000    0.0000    0.0000 C   0  0  0  0  0  0  0  0  0  0  0  0
    0.0000    0.0000    0.0000 C   0  0  0  0  0  0  0  0  0  0  0  0
    0.0000    0.0000    0.0000 C   0  0  0  0  0  0  0  0  0  0  0  0
    0.0000    0.0000    0.0000 C   0  0  0  0  0  0  0  0  0  0  0  0
    0.0000    0.0000    0.0000 C   0  0  0  0  0  0  0  0  0  0  0  0
    0.0000    0.0000    0.0000 N   0  0  0  0  0  0  0  0  0  0  0  0
    0.0000    0.0000    0.0000 C   0  0  0  0  0  0  0  0  0  0  0  0
    0.0000    0.0000    0.0000 C   0  0  0  0  0  0  0  0  0  0  0  0
    0.0000    0.0000    0.0000 C   0  0  0  0  0  0  0  0  0  0  0  0
    0.0000    0.0000    0.0000 C   0  0  0  0  0  0  0  0  0  0  0  0
    0.0000    0.0000    0.0000 C   0  0  0  0  0  0  0  0  0  0  0  0
    0.0000    0.0000    0.0000 N   0  0  0  0  0  0  0  0  0  0  0  0
    0.0000    0.0000    0.0000 C   0  0  0  0  0  0  0  0  0  0  0  0
    0.0000    0.0000    0.0000 N   0  0  0  0  0  0  0  0  0  0  0  0
    0.0000    0.0000    0.0000 C   0  0  0  0  0  0  0  0  0  0  0  0
    0.0000    0.0000    0.0000 O   0  0  0  0  0  0  0  0  0  0  0  0
    0.0000    0.0000    0.0000 C   0  0  0  0  0  0  0  0  0  0  0  0
    0.0000    0.0000    0.0000 C   0  0  0  0  0  0  0  0  0  0  0  0
    0.0000    0.0000    0.0000 C   0  0  0  0  0  0  0  0  0  0  0  0
    0.0000    0.0000    0.0000 C   0  0  0  0  0  0  0  0  0  0  0  0
    0.0000    0.0000    0.0000 C   0  0  0  0  0  0  0  0  0  0  0  0
    0.0000    0.0000    0.0000 C   0  0  0  0  0  0  0  0  0  0  0  0
    0.0000    0.0000    0.0000 C   0  0  0  0  0  0  0  0  0  0  0  0
    0.0000    0.0000    0.0000 C   0  0  0  0  0  0  0  0  0  0  0  0
    0.0000    0.0000    0.0000 C   0  0  0  0  0  0  0  0  0  0  0  0
    0.0000    0.0000    0.0000 N   0  0  0  0  0  0  0  0  0  0  0  0
    0.0000    0.0000    0.0000 C   0  0  0  0  0  0  0  0  0  0  0  0
    0.0000    0.0000    0.0000 C   0  0  0  0  0  0  0  0  0  0  0  0
  1  2  1  0
  2  3  1  0
  3  4  1  0
  4  5  1  0
  5  6  1  0
  6  7  1  0
  7  8  1  0
  8  9  1  0
  9 10  1  0
 10 11  1  0
 11 12  1  0
 12 13  1  0
 11 14  1  0
 14 15  1  0
 15 16  1  0
 16 17  1  0
 17 18  2  0
 14 19  1  0
 19 20  2  0
 20 21  1  0
 21 22  2  0
 22 23  1  0
 23 24  2  0
  2 25  1  0
 25 26  2  0
 26 27  1  0
 27 28  2  0
 28 29  1  0
 29 30  2  0
  7  2  1  0
 13  8  1  0
 17 11  1  0
 24 19  1  0
 30 25  1  0
M  END
>  <pIC50>  (276) 
6.0

>  <ChEMBL_ID>  (276) 
CHEMBL372995

>  <document_journal>  (276) 
Bioorg. Med. Chem. Lett.

>  <bao_endpoint>  (276) 
BAO_0000190

>  <potential_duplicate>  (276) 
False

>  <uo_units>  (276) 
UO_0000065

>  <canonical_smiles>  (276) 
O[C@]1(CCCC[C@H]1N2CCC3(CC2)N(CNC3=O)c4ccccc4)c5ccncc5

>  <parent_molecule_chembl_id>  (276) 
CHEMBL372995

>  <assay_type>  (276) 
B

>  <src_id>  (276) 
1

>  <ligand_efficiency>  (276) 
{u'le': u'0.27', u'bei': u'14.76', u'sei': u'8.73', u'lle': u'3.79'}

>  <standard_flag>  (276) 
True

>  <molecule_chembl_id>  (276) 
CHEMBL372995

>  <target_organism>  (276) 
Homo sapiens

>  <standard_units>  (276) 
nM

>  <record_id>  (276) 
412905

>  <document_chembl_id>  (276) 
CHEMBL1147765

>  <bao_format>  (276) 
BAO_0000219

>  <data_validity_description>  (276) 
None

>  <activity_id>  (276) 
1665901

>  <standard_type>  (276) 
IC50

>  <target_chembl_id>  (276) 
CHEMBL233

>  <data_validity_comment>  (276) 
None

>  <published_value>  (276) 
1

>  <document_year>  (276) 
2006

>  <target_pref_name>  (276) 
Mu opioid receptor

>  <assay_chembl_id>  (276) 
CHEMBL860261

>  <standard_relation>  (276) 
=

>  <assay_description>  (276) 
Displacement of [3H]naloxone from human mu opioid receptor expressed in BHK cells

>  <published_relation>  (276) 
=

>  <standard_value>  (276) 
1000

>  <qudt_units>  (276) 
http://www.openphacts.org/units/Nanomolar

>  <target_tax_id>  (276) 
9606

>  <bao_label>  (276) 
cell-based format

>  <published_units>  (276) 
uM

>  <pchembl_value>  (276) 
6

>  <published_type>  (276) 
IC50

>  <activity_comment>  (276) 
None

$$$$

     RDKit          

 30 34  0  0  0  0  0  0  0  0999 V2000
    0.0000    0.0000    0.0000 O   0  0  0  0  0  0  0  0  0  0  0  0
    0.0000    0.0000    0.0000 C   0  0  0  0  0  0  0  0  0  0  0  0
    0.0000    0.0000    0.0000 C   0  0  0  0  0  0  0  0  0  0  0  0
    0.0000    0.0000    0.0000 C   0  0  0  0  0  0  0  0  0  0  0  0
    0.0000    0.0000    0.0000 C   0  0  0  0  0  0  0  0  0  0  0  0
    0.0000    0.0000    0.0000 C   0  0  0  0  0  0  0  0  0  0  0  0
    0.0000    0.0000    0.0000 C   0  0  0  0  0  0  0  0  0  0  0  0
    0.0000    0.0000    0.0000 N   0  0  0  0  0  0  0  0  0  0  0  0
    0.0000    0.0000    0.0000 C   0  0  0  0  0  0  0  0  0  0  0  0
    0.0000    0.0000    0.0000 C   0  0  0  0  0  0  0  0  0  0  0  0
    0.0000    0.0000    0.0000 C   0  0  0  0  0  0  0  0  0  0  0  0
    0.0000    0.0000    0.0000 C   0  0  0  0  0  0  0  0  0  0  0  0
    0.0000    0.0000    0.0000 C   0  0  0  0  0  0  0  0  0  0  0  0
    0.0000    0.0000    0.0000 N   0  0  0  0  0  0  0  0  0  0  0  0
    0.0000    0.0000    0.0000 C   0  0  0  0  0  0  0  0  0  0  0  0
    0.0000    0.0000    0.0000 N   0  0  0  0  0  0  0  0  0  0  0  0
    0.0000    0.0000    0.0000 C   0  0  0  0  0  0  0  0  0  0  0  0
    0.0000    0.0000    0.0000 O   0  0  0  0  0  0  0  0  0  0  0  0
    0.0000    0.0000    0.0000 C   0  0  0  0  0  0  0  0  0  0  0  0
    0.0000    0.0000    0.0000 C   0  0  0  0  0  0  0  0  0  0  0  0
    0.0000    0.0000    0.0000 C   0  0  0  0  0  0  0  0  0  0  0  0
    0.0000    0.0000    0.0000 C   0  0  0  0  0  0  0  0  0  0  0  0
    0.0000    0.0000    0.0000 C   0  0  0  0  0  0  0  0  0  0  0  0
    0.0000    0.0000    0.0000 C   0  0  0  0  0  0  0  0  0  0  0  0
    0.0000    0.0000    0.0000 C   0  0  0  0  0  0  0  0  0  0  0  0
    0.0000    0.0000    0.0000 C   0  0  0  0  0  0  0  0  0  0  0  0
    0.0000    0.0000    0.0000 C   0  0  0  0  0  0  0  0  0  0  0  0
    0.0000    0.0000    0.0000 C   0  0  0  0  0  0  0  0  0  0  0  0
    0.0000    0.0000    0.0000 N   0  0  0  0  0  0  0  0  0  0  0  0
    0.0000    0.0000    0.0000 C   0  0  0  0  0  0  0  0  0  0  0  0
  1  2  1  0
  2  3  1  0
  3  4  1  0
  4  5  1  0
  5  6  1  0
  6  7  1  0
  7  8  1  0
  8  9  1  0
  9 10  1  0
 10 11  1  0
 11 12  1  0
 12 13  1  0
 11 14  1  0
 14 15  1  0
 15 16  1  0
 16 17  1  0
 17 18  2  0
 14 19  1  0
 19 20  2  0
 20 21  1  0
 21 22  2  0
 22 23  1  0
 23 24  2  0
  2 25  1  0
 25 26  2  0
 26 27  1  0
 27 28  2  0
 28 29  1  0
 29 30  2  0
  7  2  1  0
 13  8  1  0
 17 11  1  0
 24 19  1  0
 30 25  1  0
M  END
>  <pIC50>  (277) 
5.75

>  <ChEMBL_ID>  (277) 
CHEMBL200695

>  <document_journal>  (277) 
Bioorg. Med. Chem. Lett.

>  <bao_endpoint>  (277) 
BAO_0000190

>  <potential_duplicate>  (277) 
False

>  <uo_units>  (277) 
UO_0000065

>  <canonical_smiles>  (277) 
O[C@]1(CCCC[C@H]1N2CCC3(CC2)N(CNC3=O)c4ccccc4)c5cccnc5

>  <parent_molecule_chembl_id>  (277) 
CHEMBL200695

>  <assay_type>  (277) 
B

>  <src_id>  (277) 
1

>  <ligand_efficiency>  (277) 
{u'le': u'0.26', u'bei': u'14.13', u'sei': u'8.36', u'lle': u'3.53'}

>  <standard_flag>  (277) 
True

>  <molecule_chembl_id>  (277) 
CHEMBL200695

>  <target_organism>  (277) 
Homo sapiens

>  <standard_units>  (277) 
nM

>  <record_id>  (277) 
412904

>  <document_chembl_id>  (277) 
CHEMBL1147765

>  <bao_format>  (277) 
BAO_0000219

>  <data_validity_description>  (277) 
None

>  <activity_id>  (277) 
1665902

>  <standard_type>  (277) 
IC50

>  <target_chembl_id>  (277) 
CHEMBL233

>  <data_validity_comment>  (277) 
None

>  <published_value>  (277) 
1.8

>  <document_year>  (277) 
2006

>  <target_pref_name>  (277) 
Mu opioid receptor

>  <assay_chembl_id>  (277) 
CHEMBL860261

>  <standard_relation>  (277) 
=

>  <assay_description>  (277) 
Displacement of [3H]naloxone from human mu opioid receptor expressed in BHK cells

>  <published_relation>  (277) 
=

>  <standard_value>  (277) 
1800

>  <qudt_units>  (277) 
http://www.openphacts.org/units/Nanomolar

>  <target_tax_id>  (277) 
9606

>  <bao_label>  (277) 
cell-based format

>  <published_units>  (277) 
uM

>  <pchembl_value>  (277) 
5.75

>  <published_type>  (277) 
IC50

>  <activity_comment>  (277) 
None

$$$$

     RDKit          

 30 34  0  0  0  0  0  0  0  0999 V2000
    0.0000    0.0000    0.0000 O   0  0  0  0  0  0  0  0  0  0  0  0
    0.0000    0.0000    0.0000 C   0  0  0  0  0  0  0  0  0  0  0  0
    0.0000    0.0000    0.0000 C   0  0  0  0  0  0  0  0  0  0  0  0
    0.0000    0.0000    0.0000 C   0  0  0  0  0  0  0  0  0  0  0  0
    0.0000    0.0000    0.0000 C   0  0  0  0  0  0  0  0  0  0  0  0
    0.0000    0.0000    0.0000 C   0  0  0  0  0  0  0  0  0  0  0  0
    0.0000    0.0000    0.0000 C   0  0  0  0  0  0  0  0  0  0  0  0
    0.0000    0.0000    0.0000 N   0  0  0  0  0  0  0  0  0  0  0  0
    0.0000    0.0000    0.0000 C   0  0  0  0  0  0  0  0  0  0  0  0
    0.0000    0.0000    0.0000 C   0  0  0  0  0  0  0  0  0  0  0  0
    0.0000    0.0000    0.0000 C   0  0  0  0  0  0  0  0  0  0  0  0
    0.0000    0.0000    0.0000 C   0  0  0  0  0  0  0  0  0  0  0  0
    0.0000    0.0000    0.0000 C   0  0  0  0  0  0  0  0  0  0  0  0
    0.0000    0.0000    0.0000 N   0  0  0  0  0  0  0  0  0  0  0  0
    0.0000    0.0000    0.0000 C   0  0  0  0  0  0  0  0  0  0  0  0
    0.0000    0.0000    0.0000 N   0  0  0  0  0  0  0  0  0  0  0  0
    0.0000    0.0000    0.0000 C   0  0  0  0  0  0  0  0  0  0  0  0
    0.0000    0.0000    0.0000 O   0  0  0  0  0  0  0  0  0  0  0  0
    0.0000    0.0000    0.0000 C   0  0  0  0  0  0  0  0  0  0  0  0
    0.0000    0.0000    0.0000 C   0  0  0  0  0  0  0  0  0  0  0  0
    0.0000    0.0000    0.0000 C   0  0  0  0  0  0  0  0  0  0  0  0
    0.0000    0.0000    0.0000 C   0  0  0  0  0  0  0  0  0  0  0  0
    0.0000    0.0000    0.0000 C   0  0  0  0  0  0  0  0  0  0  0  0
    0.0000    0.0000    0.0000 C   0  0  0  0  0  0  0  0  0  0  0  0
    0.0000    0.0000    0.0000 C   0  0  0  0  0  0  0  0  0  0  0  0
    0.0000    0.0000    0.0000 C   0  0  0  0  0  0  0  0  0  0  0  0
    0.0000    0.0000    0.0000 C   0  0  0  0  0  0  0  0  0  0  0  0
    0.0000    0.0000    0.0000 C   0  0  0  0  0  0  0  0  0  0  0  0
    0.0000    0.0000    0.0000 C   0  0  0  0  0  0  0  0  0  0  0  0
    0.0000    0.0000    0.0000 N   0  0  0  0  0  0  0  0  0  0  0  0
  1  2  1  0
  2  3  1  0
  3  4  1  0
  4  5  1  0
  5  6  1  0
  6  7  1  0
  7  8  1  0
  8  9  1  0
  9 10  1  0
 10 11  1  0
 11 12  1  0
 12 13  1  0
 11 14  1  0
 14 15  1  0
 15 16  1  0
 16 17  1  0
 17 18  2  0
 14 19  1  0
 19 20  2  0
 20 21  1  0
 21 22  2  0
 22 23  1  0
 23 24  2  0
  2 25  1  0
 25 26  2  0
 26 27  1  0
 27 28  2  0
 28 29  1  0
 29 30  2  0
  7  2  1  0
 13  8  1  0
 17 11  1  0
 24 19  1  0
 30 25  1  0
M  END
>  <pIC50>  (278) 
5.85

>  <ChEMBL_ID>  (278) 
CHEMBL371550

>  <document_journal>  (278) 
Bioorg. Med. Chem. Lett.

>  <bao_endpoint>  (278) 
BAO_0000190

>  <potential_duplicate>  (278) 
False

>  <uo_units>  (278) 
UO_0000065

>  <canonical_smiles>  (278) 
O[C@]1(CCCC[C@H]1N2CCC3(CC2)N(CNC3=O)c4ccccc4)c5ccccn5

>  <parent_molecule_chembl_id>  (278) 
CHEMBL371550

>  <assay_type>  (278) 
B

>  <src_id>  (278) 
1

>  <ligand_efficiency>  (278) 
{u'le': u'0.27', u'bei': u'14.38', u'sei': u'8.51', u'lle': u'3.21'}

>  <standard_flag>  (278) 
True

>  <molecule_chembl_id>  (278) 
CHEMBL371550

>  <target_organism>  (278) 
Homo sapiens

>  <standard_units>  (278) 
nM

>  <record_id>  (278) 
412903

>  <document_chembl_id>  (278) 
CHEMBL1147765

>  <bao_format>  (278) 
BAO_0000219

>  <data_validity_description>  (278) 
None

>  <activity_id>  (278) 
1665903

>  <standard_type>  (278) 
IC50

>  <target_chembl_id>  (278) 
CHEMBL233

>  <data_validity_comment>  (278) 
None

>  <published_value>  (278) 
1.42

>  <document_year>  (278) 
2006

>  <target_pref_name>  (278) 
Mu opioid receptor

>  <assay_chembl_id>  (278) 
CHEMBL860261

>  <standard_relation>  (278) 
=

>  <assay_description>  (278) 
Displacement of [3H]naloxone from human mu opioid receptor expressed in BHK cells

>  <published_relation>  (278) 
=

>  <standard_value>  (278) 
1420

>  <qudt_units>  (278) 
http://www.openphacts.org/units/Nanomolar

>  <target_tax_id>  (278) 
9606

>  <bao_label>  (278) 
cell-based format

>  <published_units>  (278) 
uM

>  <pchembl_value>  (278) 
5.85

>  <published_type>  (278) 
IC50

>  <activity_comment>  (278) 
None

$$$$

     RDKit          

 32 36  0  0  0  0  0  0  0  0999 V2000
    0.0000    0.0000    0.0000 C   0  0  0  0  0  0  0  0  0  0  0  0
    0.0000    0.0000    0.0000 O   0  0  0  0  0  0  0  0  0  0  0  0
    0.0000    0.0000    0.0000 C   0  0  0  0  0  0  0  0  0  0  0  0
    0.0000    0.0000    0.0000 C   0  0  0  0  0  0  0  0  0  0  0  0
    0.0000    0.0000    0.0000 C   0  0  0  0  0  0  0  0  0  0  0  0
    0.0000    0.0000    0.0000 C   0  0  0  0  0  0  0  0  0  0  0  0
    0.0000    0.0000    0.0000 C   0  0  0  0  0  0  0  0  0  0  0  0
    0.0000    0.0000    0.0000 C   0  0  0  0  0  0  0  0  0  0  0  0
    0.0000    0.0000    0.0000 C   0  0  0  0  0  0  0  0  0  0  0  0
    0.0000    0.0000    0.0000 O   0  0  0  0  0  0  0  0  0  0  0  0
    0.0000    0.0000    0.0000 C   0  0  0  0  0  0  0  0  0  0  0  0
    0.0000    0.0000    0.0000 C   0  0  0  0  0  0  0  0  0  0  0  0
    0.0000    0.0000    0.0000 C   0  0  0  0  0  0  0  0  0  0  0  0
    0.0000    0.0000    0.0000 C   0  0  0  0  0  0  0  0  0  0  0  0
    0.0000    0.0000    0.0000 C   0  0  0  0  0  0  0  0  0  0  0  0
    0.0000    0.0000    0.0000 N   0  0  0  0  0  0  0  0  0  0  0  0
    0.0000    0.0000    0.0000 C   0  0  0  0  0  0  0  0  0  0  0  0
    0.0000    0.0000    0.0000 C   0  0  0  0  0  0  0  0  0  0  0  0
    0.0000    0.0000    0.0000 C   0  0  0  0  0  0  0  0  0  0  0  0
    0.0000    0.0000    0.0000 C   0  0  0  0  0  0  0  0  0  0  0  0
    0.0000    0.0000    0.0000 C   0  0  0  0  0  0  0  0  0  0  0  0
    0.0000    0.0000    0.0000 N   0  0  0  0  0  0  0  0  0  0  0  0
    0.0000    0.0000    0.0000 C   0  0  0  0  0  0  0  0  0  0  0  0
    0.0000    0.0000    0.0000 N   0  0  0  0  0  0  0  0  0  0  0  0
    0.0000    0.0000    0.0000 C   0  0  0  0  0  0  0  0  0  0  0  0
    0.0000    0.0000    0.0000 O   0  0  0  0  0  0  0  0  0  0  0  0
    0.0000    0.0000    0.0000 C   0  0  0  0  0  0  0  0  0  0  0  0
    0.0000    0.0000    0.0000 C   0  0  0  0  0  0  0  0  0  0  0  0
    0.0000    0.0000    0.0000 C   0  0  0  0  0  0  0  0  0  0  0  0
    0.0000    0.0000    0.0000 C   0  0  0  0  0  0  0  0  0  0  0  0
    0.0000    0.0000    0.0000 C   0  0  0  0  0  0  0  0  0  0  0  0
    0.0000    0.0000    0.0000 C   0  0  0  0  0  0  0  0  0  0  0  0
  1  2  1  0
  2  3  1  0
  3  4  2  0
  4  5  1  0
  5  6  2  0
  6  7  1  0
  7  8  2  0
  7  9  1  0
  9 10  1  0
  9 11  1  0
 11 12  1  0
 12 13  1  0
 13 14  1  0
 14 15  1  0
 15 16  1  0
 16 17  1  0
 17 18  1  0
 18 19  1  0
 19 20  1  0
 20 21  1  0
 19 22  1  0
 22 23  1  0
 23 24  1  0
 24 25  1  0
 25 26  2  0
 22 27  1  0
 27 28  2  0
 28 29  1  0
 29 30  2  0
 30 31  1  0
 31 32  2  0
  8  3  1  0
 15  9  1  0
 21 16  1  0
 25 19  1  0
 32 27  1  0
M  END
>  <pIC50>  (279) 
5.66

>  <ChEMBL_ID>  (279) 
CHEMBL373198

>  <document_journal>  (279) 
Bioorg. Med. Chem. Lett.

>  <bao_endpoint>  (279) 
BAO_0000190

>  <potential_duplicate>  (279) 
False

>  <uo_units>  (279) 
UO_0000065

>  <canonical_smiles>  (279) 
COc1cccc(c1)[C@]2(O)CCCC[C@H]2N3CCC4(CC3)N(CNC4=O)c5ccccc5

>  <parent_molecule_chembl_id>  (279) 
CHEMBL373198

>  <assay_type>  (279) 
B

>  <src_id>  (279) 
1

>  <ligand_efficiency>  (279) 
{u'le': u'0.24', u'bei': u'13', u'sei': u'8.71', u'lle': u'2.31'}

>  <standard_flag>  (279) 
True

>  <molecule_chembl_id>  (279) 
CHEMBL373198

>  <target_organism>  (279) 
Homo sapiens

>  <standard_units>  (279) 
nM

>  <record_id>  (279) 
412902

>  <document_chembl_id>  (279) 
CHEMBL1147765

>  <bao_format>  (279) 
BAO_0000219

>  <data_validity_description>  (279) 
None

>  <activity_id>  (279) 
1665904

>  <standard_type>  (279) 
IC50

>  <target_chembl_id>  (279) 
CHEMBL233

>  <data_validity_comment>  (279) 
None

>  <published_value>  (279) 
2.17

>  <document_year>  (279) 
2006

>  <target_pref_name>  (279) 
Mu opioid receptor

>  <assay_chembl_id>  (279) 
CHEMBL860261

>  <standard_relation>  (279) 
=

>  <assay_description>  (279) 
Displacement of [3H]naloxone from human mu opioid receptor expressed in BHK cells

>  <published_relation>  (279) 
=

>  <standard_value>  (279) 
2170

>  <qudt_units>  (279) 
http://www.openphacts.org/units/Nanomolar

>  <target_tax_id>  (279) 
9606

>  <bao_label>  (279) 
cell-based format

>  <published_units>  (279) 
uM

>  <pchembl_value>  (279) 
5.66

>  <published_type>  (279) 
IC50

>  <activity_comment>  (279) 
None

$$$$

     RDKit          

 31 35  0  0  0  0  0  0  0  0999 V2000
    0.0000    0.0000    0.0000 O   0  0  0  0  0  0  0  0  0  0  0  0
    0.0000    0.0000    0.0000 C   0  0  0  0  0  0  0  0  0  0  0  0
    0.0000    0.0000    0.0000 C   0  0  0  0  0  0  0  0  0  0  0  0
    0.0000    0.0000    0.0000 C   0  0  0  0  0  0  0  0  0  0  0  0
    0.0000    0.0000    0.0000 C   0  0  0  0  0  0  0  0  0  0  0  0
    0.0000    0.0000    0.0000 C   0  0  0  0  0  0  0  0  0  0  0  0
    0.0000    0.0000    0.0000 C   0  0  0  0  0  0  0  0  0  0  0  0
    0.0000    0.0000    0.0000 N   0  0  0  0  0  0  0  0  0  0  0  0
    0.0000    0.0000    0.0000 C   0  0  0  0  0  0  0  0  0  0  0  0
    0.0000    0.0000    0.0000 C   0  0  0  0  0  0  0  0  0  0  0  0
    0.0000    0.0000    0.0000 C   0  0  0  0  0  0  0  0  0  0  0  0
    0.0000    0.0000    0.0000 C   0  0  0  0  0  0  0  0  0  0  0  0
    0.0000    0.0000    0.0000 C   0  0  0  0  0  0  0  0  0  0  0  0
    0.0000    0.0000    0.0000 N   0  0  0  0  0  0  0  0  0  0  0  0
    0.0000    0.0000    0.0000 C   0  0  0  0  0  0  0  0  0  0  0  0
    0.0000    0.0000    0.0000 N   0  0  0  0  0  0  0  0  0  0  0  0
    0.0000    0.0000    0.0000 C   0  0  0  0  0  0  0  0  0  0  0  0
    0.0000    0.0000    0.0000 O   0  0  0  0  0  0  0  0  0  0  0  0
    0.0000    0.0000    0.0000 C   0  0  0  0  0  0  0  0  0  0  0  0
    0.0000    0.0000    0.0000 C   0  0  0  0  0  0  0  0  0  0  0  0
    0.0000    0.0000    0.0000 C   0  0  0  0  0  0  0  0  0  0  0  0
    0.0000    0.0000    0.0000 C   0  0  0  0  0  0  0  0  0  0  0  0
    0.0000    0.0000    0.0000 C   0  0  0  0  0  0  0  0  0  0  0  0
    0.0000    0.0000    0.0000 C   0  0  0  0  0  0  0  0  0  0  0  0
    0.0000    0.0000    0.0000 C   0  0  0  0  0  0  0  0  0  0  0  0
    0.0000    0.0000    0.0000 C   0  0  0  0  0  0  0  0  0  0  0  0
    0.0000    0.0000    0.0000 C   0  0  0  0  0  0  0  0  0  0  0  0
    0.0000    0.0000    0.0000 C   0  0  0  0  0  0  0  0  0  0  0  0
    0.0000    0.0000    0.0000 C   0  0  0  0  0  0  0  0  0  0  0  0
    0.0000    0.0000    0.0000 Cl  0  0  0  0  0  0  0  0  0  0  0  0
    0.0000    0.0000    0.0000 C   0  0  0  0  0  0  0  0  0  0  0  0
  1  2  1  0
  2  3  1  0
  3  4  1  0
  4  5  1  0
  5  6  1  0
  6  7  1  0
  7  8  1  0
  8  9  1  0
  9 10  1  0
 10 11  1  0
 11 12  1  0
 12 13  1  0
 11 14  1  0
 14 15  1  0
 15 16  1  0
 16 17  1  0
 17 18  2  0
 14 19  1  0
 19 20  2  0
 20 21  1  0
 21 22  2  0
 22 23  1  0
 23 24  2  0
  2 25  1  0
 25 26  2  0
 26 27  1  0
 27 28  2  0
 28 29  1  0
 29 30  1  0
 29 31  2  0
  7  2  1  0
 13  8  1  0
 17 11  1  0
 24 19  1  0
 31 25  1  0
M  END
>  <pIC50>  (280) 
5.96

>  <ChEMBL_ID>  (280) 
CHEMBL200882

>  <document_journal>  (280) 
Bioorg. Med. Chem. Lett.

>  <bao_endpoint>  (280) 
BAO_0000190

>  <potential_duplicate>  (280) 
False

>  <uo_units>  (280) 
UO_0000065

>  <canonical_smiles>  (280) 
O[C@]1(CCCC[C@H]1N2CCC3(CC2)N(CNC3=O)c4ccccc4)c5cccc(Cl)c5

>  <parent_molecule_chembl_id>  (280) 
CHEMBL200882

>  <assay_type>  (280) 
B

>  <src_id>  (280) 
1

>  <ligand_efficiency>  (280) 
{u'le': u'0.26', u'bei': u'13.55', u'sei': u'10.68', u'lle': u'1.93'}

>  <standard_flag>  (280) 
True

>  <molecule_chembl_id>  (280) 
CHEMBL200882

>  <target_organism>  (280) 
Homo sapiens

>  <standard_units>  (280) 
nM

>  <record_id>  (280) 
412901

>  <document_chembl_id>  (280) 
CHEMBL1147765

>  <bao_format>  (280) 
BAO_0000219

>  <data_validity_description>  (280) 
None

>  <activity_id>  (280) 
1665905

>  <standard_type>  (280) 
IC50

>  <target_chembl_id>  (280) 
CHEMBL233

>  <data_validity_comment>  (280) 
None

>  <published_value>  (280) 
1.09

>  <document_year>  (280) 
2006

>  <target_pref_name>  (280) 
Mu opioid receptor

>  <assay_chembl_id>  (280) 
CHEMBL860261

>  <standard_relation>  (280) 
=

>  <assay_description>  (280) 
Displacement of [3H]naloxone from human mu opioid receptor expressed in BHK cells

>  <published_relation>  (280) 
=

>  <standard_value>  (280) 
1090

>  <qudt_units>  (280) 
http://www.openphacts.org/units/Nanomolar

>  <target_tax_id>  (280) 
9606

>  <bao_label>  (280) 
cell-based format

>  <published_units>  (280) 
uM

>  <pchembl_value>  (280) 
5.96

>  <published_type>  (280) 
IC50

>  <activity_comment>  (280) 
None

$$$$

     RDKit          

 31 35  0  0  0  0  0  0  0  0999 V2000
    0.0000    0.0000    0.0000 C   0  0  0  0  0  0  0  0  0  0  0  0
    0.0000    0.0000    0.0000 C   0  0  0  0  0  0  0  0  0  0  0  0
    0.0000    0.0000    0.0000 C   0  0  0  0  0  0  0  0  0  0  0  0
    0.0000    0.0000    0.0000 C   0  0  0  0  0  0  0  0  0  0  0  0
    0.0000    0.0000    0.0000 C   0  0  0  0  0  0  0  0  0  0  0  0
    0.0000    0.0000    0.0000 C   0  0  0  0  0  0  0  0  0  0  0  0
    0.0000    0.0000    0.0000 C   0  0  0  0  0  0  0  0  0  0  0  0
    0.0000    0.0000    0.0000 C   0  0  0  0  0  0  0  0  0  0  0  0
    0.0000    0.0000    0.0000 O   0  0  0  0  0  0  0  0  0  0  0  0
    0.0000    0.0000    0.0000 C   0  0  0  0  0  0  0  0  0  0  0  0
    0.0000    0.0000    0.0000 C   0  0  0  0  0  0  0  0  0  0  0  0
    0.0000    0.0000    0.0000 C   0  0  0  0  0  0  0  0  0  0  0  0
    0.0000    0.0000    0.0000 C   0  0  0  0  0  0  0  0  0  0  0  0
    0.0000    0.0000    0.0000 C   0  0  0  0  0  0  0  0  0  0  0  0
    0.0000    0.0000    0.0000 N   0  0  0  0  0  0  0  0  0  0  0  0
    0.0000    0.0000    0.0000 C   0  0  0  0  0  0  0  0  0  0  0  0
    0.0000    0.0000    0.0000 C   0  0  0  0  0  0  0  0  0  0  0  0
    0.0000    0.0000    0.0000 C   0  0  0  0  0  0  0  0  0  0  0  0
    0.0000    0.0000    0.0000 C   0  0  0  0  0  0  0  0  0  0  0  0
    0.0000    0.0000    0.0000 C   0  0  0  0  0  0  0  0  0  0  0  0
    0.0000    0.0000    0.0000 N   0  0  0  0  0  0  0  0  0  0  0  0
    0.0000    0.0000    0.0000 C   0  0  0  0  0  0  0  0  0  0  0  0
    0.0000    0.0000    0.0000 N   0  0  0  0  0  0  0  0  0  0  0  0
    0.0000    0.0000    0.0000 C   0  0  0  0  0  0  0  0  0  0  0  0
    0.0000    0.0000    0.0000 O   0  0  0  0  0  0  0  0  0  0  0  0
    0.0000    0.0000    0.0000 C   0  0  0  0  0  0  0  0  0  0  0  0
    0.0000    0.0000    0.0000 C   0  0  0  0  0  0  0  0  0  0  0  0
    0.0000    0.0000    0.0000 C   0  0  0  0  0  0  0  0  0  0  0  0
    0.0000    0.0000    0.0000 C   0  0  0  0  0  0  0  0  0  0  0  0
    0.0000    0.0000    0.0000 C   0  0  0  0  0  0  0  0  0  0  0  0
    0.0000    0.0000    0.0000 C   0  0  0  0  0  0  0  0  0  0  0  0
  1  2  1  0
  2  3  2  0
  3  4  1  0
  4  5  2  0
  5  6  1  0
  6  7  2  0
  7  8  1  0
  8  9  1  0
  8 10  1  0
 10 11  1  0
 11 12  1  0
 12 13  1  0
 13 14  1  0
 14 15  1  0
 15 16  1  0
 16 17  1  0
 17 18  1  0
 18 19  1  0
 19 20  1  0
 18 21  1  0
 21 22  1  0
 22 23  1  0
 23 24  1  0
 24 25  2  0
 21 26  1  0
 26 27  2  0
 27 28  1  0
 28 29  2  0
 29 30  1  0
 30 31  2  0
  7  2  1  0
 14  8  1  0
 20 15  1  0
 24 18  1  0
 31 26  1  0
M  END
>  <pIC50>  (281) 
6.59

>  <ChEMBL_ID>  (281) 
CHEMBL381419

>  <document_journal>  (281) 
Bioorg. Med. Chem. Lett.

>  <bao_endpoint>  (281) 
BAO_0000190

>  <potential_duplicate>  (281) 
False

>  <uo_units>  (281) 
UO_0000065

>  <canonical_smiles>  (281) 
Cc1ccccc1[C@]2(O)CCCC[C@H]2N3CCC4(CC3)N(CNC4=O)c5ccccc5

>  <parent_molecule_chembl_id>  (281) 
CHEMBL381419

>  <assay_type>  (281) 
B

>  <src_id>  (281) 
1

>  <ligand_efficiency>  (281) 
{u'le': u'0.29', u'bei': u'15.7', u'sei': u'11.8', u'lle': u'2.74'}

>  <standard_flag>  (281) 
True

>  <molecule_chembl_id>  (281) 
CHEMBL381419

>  <target_organism>  (281) 
Homo sapiens

>  <standard_units>  (281) 
nM

>  <record_id>  (281) 
412900

>  <document_chembl_id>  (281) 
CHEMBL1147765

>  <bao_format>  (281) 
BAO_0000219

>  <data_validity_description>  (281) 
None

>  <activity_id>  (281) 
1665906

>  <standard_type>  (281) 
IC50

>  <target_chembl_id>  (281) 
CHEMBL233

>  <data_validity_comment>  (281) 
None

>  <published_value>  (281) 
0.26

>  <document_year>  (281) 
2006

>  <target_pref_name>  (281) 
Mu opioid receptor

>  <assay_chembl_id>  (281) 
CHEMBL860261

>  <standard_relation>  (281) 
=

>  <assay_description>  (281) 
Displacement of [3H]naloxone from human mu opioid receptor expressed in BHK cells

>  <published_relation>  (281) 
=

>  <standard_value>  (281) 
260

>  <qudt_units>  (281) 
http://www.openphacts.org/units/Nanomolar

>  <target_tax_id>  (281) 
9606

>  <bao_label>  (281) 
cell-based format

>  <published_units>  (281) 
uM

>  <pchembl_value>  (281) 
6.59

>  <published_type>  (281) 
IC50

>  <activity_comment>  (281) 
None

$$$$

     RDKit          

 31 35  0  0  0  0  0  0  0  0999 V2000
    0.0000    0.0000    0.0000 O   0  0  0  0  0  0  0  0  0  0  0  0
    0.0000    0.0000    0.0000 C   0  0  0  0  0  0  0  0  0  0  0  0
    0.0000    0.0000    0.0000 C   0  0  0  0  0  0  0  0  0  0  0  0
    0.0000    0.0000    0.0000 C   0  0  0  0  0  0  0  0  0  0  0  0
    0.0000    0.0000    0.0000 C   0  0  0  0  0  0  0  0  0  0  0  0
    0.0000    0.0000    0.0000 C   0  0  0  0  0  0  0  0  0  0  0  0
    0.0000    0.0000    0.0000 C   0  0  0  0  0  0  0  0  0  0  0  0
    0.0000    0.0000    0.0000 N   0  0  0  0  0  0  0  0  0  0  0  0
    0.0000    0.0000    0.0000 C   0  0  0  0  0  0  0  0  0  0  0  0
    0.0000    0.0000    0.0000 C   0  0  0  0  0  0  0  0  0  0  0  0
    0.0000    0.0000    0.0000 C   0  0  0  0  0  0  0  0  0  0  0  0
    0.0000    0.0000    0.0000 C   0  0  0  0  0  0  0  0  0  0  0  0
    0.0000    0.0000    0.0000 C   0  0  0  0  0  0  0  0  0  0  0  0
    0.0000    0.0000    0.0000 N   0  0  0  0  0  0  0  0  0  0  0  0
    0.0000    0.0000    0.0000 C   0  0  0  0  0  0  0  0  0  0  0  0
    0.0000    0.0000    0.0000 N   0  0  0  0  0  0  0  0  0  0  0  0
    0.0000    0.0000    0.0000 C   0  0  0  0  0  0  0  0  0  0  0  0
    0.0000    0.0000    0.0000 O   0  0  0  0  0  0  0  0  0  0  0  0
    0.0000    0.0000    0.0000 C   0  0  0  0  0  0  0  0  0  0  0  0
    0.0000    0.0000    0.0000 C   0  0  0  0  0  0  0  0  0  0  0  0
    0.0000    0.0000    0.0000 C   0  0  0  0  0  0  0  0  0  0  0  0
    0.0000    0.0000    0.0000 C   0  0  0  0  0  0  0  0  0  0  0  0
    0.0000    0.0000    0.0000 C   0  0  0  0  0  0  0  0  0  0  0  0
    0.0000    0.0000    0.0000 C   0  0  0  0  0  0  0  0  0  0  0  0
    0.0000    0.0000    0.0000 C   0  0  0  0  0  0  0  0  0  0  0  0
    0.0000    0.0000    0.0000 C   0  0  0  0  0  0  0  0  0  0  0  0
    0.0000    0.0000    0.0000 C   0  0  0  0  0  0  0  0  0  0  0  0
    0.0000    0.0000    0.0000 C   0  0  0  0  0  0  0  0  0  0  0  0
    0.0000    0.0000    0.0000 F   0  0  0  0  0  0  0  0  0  0  0  0
    0.0000    0.0000    0.0000 C   0  0  0  0  0  0  0  0  0  0  0  0
    0.0000    0.0000    0.0000 C   0  0  0  0  0  0  0  0  0  0  0  0
  1  2  1  0
  2  3  1  0
  3  4  1  0
  4  5  1  0
  5  6  1  0
  6  7  1  0
  7  8  1  0
  8  9  1  0
  9 10  1  0
 10 11  1  0
 11 12  1  0
 12 13  1  0
 11 14  1  0
 14 15  1  0
 15 16  1  0
 16 17  1  0
 17 18  2  0
 14 19  1  0
 19 20  2  0
 20 21  1  0
 21 22  2  0
 22 23  1  0
 23 24  2  0
  2 25  1  0
 25 26  2  0
 26 27  1  0
 27 28  2  0
 28 29  1  0
 28 30  1  0
 30 31  2  0
  7  2  1  0
 13  8  1  0
 17 11  1  0
 24 19  1  0
 31 25  1  0
M  END
>  <pIC50>  (282) 
5.4

>  <ChEMBL_ID>  (282) 
CHEMBL425753

>  <document_journal>  (282) 
Bioorg. Med. Chem. Lett.

>  <bao_endpoint>  (282) 
BAO_0000190

>  <potential_duplicate>  (282) 
False

>  <uo_units>  (282) 
UO_0000065

>  <canonical_smiles>  (282) 
O[C@]1(CCCC[C@H]1N2CCC3(CC2)N(CNC3=O)c4ccccc4)c5ccc(F)cc5

>  <parent_molecule_chembl_id>  (282) 
CHEMBL425753

>  <assay_type>  (282) 
B

>  <src_id>  (282) 
1

>  <ligand_efficiency>  (282) 
{u'le': u'0.24', u'bei': u'12.75', u'sei': u'9.67', u'lle': u'1.83'}

>  <standard_flag>  (282) 
True

>  <molecule_chembl_id>  (282) 
CHEMBL425753

>  <target_organism>  (282) 
Homo sapiens

>  <standard_units>  (282) 
nM

>  <record_id>  (282) 
412899

>  <document_chembl_id>  (282) 
CHEMBL1147765

>  <bao_format>  (282) 
BAO_0000219

>  <data_validity_description>  (282) 
None

>  <activity_id>  (282) 
1665907

>  <standard_type>  (282) 
IC50

>  <target_chembl_id>  (282) 
CHEMBL233

>  <data_validity_comment>  (282) 
None

>  <published_value>  (282) 
4

>  <document_year>  (282) 
2006

>  <target_pref_name>  (282) 
Mu opioid receptor

>  <assay_chembl_id>  (282) 
CHEMBL860261

>  <standard_relation>  (282) 
=

>  <assay_description>  (282) 
Displacement of [3H]naloxone from human mu opioid receptor expressed in BHK cells

>  <published_relation>  (282) 
=

>  <standard_value>  (282) 
4000

>  <qudt_units>  (282) 
http://www.openphacts.org/units/Nanomolar

>  <target_tax_id>  (282) 
9606

>  <bao_label>  (282) 
cell-based format

>  <published_units>  (282) 
uM

>  <pchembl_value>  (282) 
5.4

>  <published_type>  (282) 
IC50

>  <activity_comment>  (282) 
None

$$$$

     RDKit          

 32 36  0  0  0  0  0  0  0  0999 V2000
    0.0000    0.0000    0.0000 O   0  0  0  0  0  0  0  0  0  0  0  0
    0.0000    0.0000    0.0000 C   0  0  0  0  0  0  0  0  0  0  0  0
    0.0000    0.0000    0.0000 C   0  0  0  0  0  0  0  0  0  0  0  0
    0.0000    0.0000    0.0000 C   0  0  0  0  0  0  0  0  0  0  0  0
    0.0000    0.0000    0.0000 C   0  0  0  0  0  0  0  0  0  0  0  0
    0.0000    0.0000    0.0000 C   0  0  0  0  0  0  0  0  0  0  0  0
    0.0000    0.0000    0.0000 C   0  0  0  0  0  0  0  0  0  0  0  0
    0.0000    0.0000    0.0000 N   0  0  0  0  0  0  0  0  0  0  0  0
    0.0000    0.0000    0.0000 C   0  0  0  0  0  0  0  0  0  0  0  0
    0.0000    0.0000    0.0000 C   0  0  0  0  0  0  0  0  0  0  0  0
    0.0000    0.0000    0.0000 C   0  0  0  0  0  0  0  0  0  0  0  0
    0.0000    0.0000    0.0000 C   0  0  0  0  0  0  0  0  0  0  0  0
    0.0000    0.0000    0.0000 C   0  0  0  0  0  0  0  0  0  0  0  0
    0.0000    0.0000    0.0000 N   0  0  0  0  0  0  0  0  0  0  0  0
    0.0000    0.0000    0.0000 C   0  0  0  0  0  0  0  0  0  0  0  0
    0.0000    0.0000    0.0000 N   0  0  0  0  0  0  0  0  0  0  0  0
    0.0000    0.0000    0.0000 C   0  0  0  0  0  0  0  0  0  0  0  0
    0.0000    0.0000    0.0000 O   0  0  0  0  0  0  0  0  0  0  0  0
    0.0000    0.0000    0.0000 C   0  0  0  0  0  0  0  0  0  0  0  0
    0.0000    0.0000    0.0000 C   0  0  0  0  0  0  0  0  0  0  0  0
    0.0000    0.0000    0.0000 C   0  0  0  0  0  0  0  0  0  0  0  0
    0.0000    0.0000    0.0000 C   0  0  0  0  0  0  0  0  0  0  0  0
    0.0000    0.0000    0.0000 C   0  0  0  0  0  0  0  0  0  0  0  0
    0.0000    0.0000    0.0000 C   0  0  0  0  0  0  0  0  0  0  0  0
    0.0000    0.0000    0.0000 C   0  0  0  0  0  0  0  0  0  0  0  0
    0.0000    0.0000    0.0000 C   0  0  0  0  0  0  0  0  0  0  0  0
    0.0000    0.0000    0.0000 C   0  0  0  0  0  0  0  0  0  0  0  0
    0.0000    0.0000    0.0000 C   0  0  0  0  0  0  0  0  0  0  0  0
    0.0000    0.0000    0.0000 Cl  0  0  0  0  0  0  0  0  0  0  0  0
    0.0000    0.0000    0.0000 C   0  0  0  0  0  0  0  0  0  0  0  0
    0.0000    0.0000    0.0000 Cl  0  0  0  0  0  0  0  0  0  0  0  0
    0.0000    0.0000    0.0000 C   0  0  0  0  0  0  0  0  0  0  0  0
  1  2  1  0
  2  3  1  0
  3  4  1  0
  4  5  1  0
  5  6  1  0
  6  7  1  0
  7  8  1  0
  8  9  1  0
  9 10  1  0
 10 11  1  0
 11 12  1  0
 12 13  1  0
 11 14  1  0
 14 15  1  0
 15 16  1  0
 16 17  1  0
 17 18  2  0
 14 19  1  0
 19 20  2  0
 20 21  1  0
 21 22  2  0
 22 23  1  0
 23 24  2  0
  2 25  1  0
 25 26  2  0
 26 27  1  0
 27 28  2  0
 28 29  1  0
 28 30  1  0
 30 31  1  0
 30 32  2  0
  7  2  1  0
 13  8  1  0
 17 11  1  0
 24 19  1  0
 32 25  1  0
M  END
>  <pIC50>  (283) 
5.43

>  <ChEMBL_ID>  (283) 
CHEMBL200227

>  <document_journal>  (283) 
Bioorg. Med. Chem. Lett.

>  <bao_endpoint>  (283) 
BAO_0000190

>  <potential_duplicate>  (283) 
False

>  <uo_units>  (283) 
UO_0000065

>  <canonical_smiles>  (283) 
O[C@]1(CCCC[C@H]1N2CCC3(CC2)N(CNC3=O)c4ccccc4)c5ccc(Cl)c(Cl)c5

>  <parent_molecule_chembl_id>  (283) 
CHEMBL200227

>  <assay_type>  (283) 
B

>  <src_id>  (283) 
1

>  <ligand_efficiency>  (283) 
{u'le': u'0.23', u'bei': u'11.45', u'sei': u'9.73', u'lle': u'0.74'}

>  <standard_flag>  (283) 
True

>  <molecule_chembl_id>  (283) 
CHEMBL200227

>  <target_organism>  (283) 
Homo sapiens

>  <standard_units>  (283) 
nM

>  <record_id>  (283) 
412898

>  <document_chembl_id>  (283) 
CHEMBL1147765

>  <bao_format>  (283) 
BAO_0000219

>  <data_validity_description>  (283) 
None

>  <activity_id>  (283) 
1665908

>  <standard_type>  (283) 
IC50

>  <target_chembl_id>  (283) 
CHEMBL233

>  <data_validity_comment>  (283) 
None

>  <published_value>  (283) 
3.7

>  <document_year>  (283) 
2006

>  <target_pref_name>  (283) 
Mu opioid receptor

>  <assay_chembl_id>  (283) 
CHEMBL860261

>  <standard_relation>  (283) 
=

>  <assay_description>  (283) 
Displacement of [3H]naloxone from human mu opioid receptor expressed in BHK cells

>  <published_relation>  (283) 
=

>  <standard_value>  (283) 
3700

>  <qudt_units>  (283) 
http://www.openphacts.org/units/Nanomolar

>  <target_tax_id>  (283) 
9606

>  <bao_label>  (283) 
cell-based format

>  <published_units>  (283) 
uM

>  <pchembl_value>  (283) 
5.43

>  <published_type>  (283) 
IC50

>  <activity_comment>  (283) 
None

$$$$

     RDKit          

 31 35  0  0  0  0  0  0  0  0999 V2000
    0.0000    0.0000    0.0000 O   0  0  0  0  0  0  0  0  0  0  0  0
    0.0000    0.0000    0.0000 C   0  0  0  0  0  0  0  0  0  0  0  0
    0.0000    0.0000    0.0000 C   0  0  0  0  0  0  0  0  0  0  0  0
    0.0000    0.0000    0.0000 C   0  0  0  0  0  0  0  0  0  0  0  0
    0.0000    0.0000    0.0000 C   0  0  0  0  0  0  0  0  0  0  0  0
    0.0000    0.0000    0.0000 C   0  0  0  0  0  0  0  0  0  0  0  0
    0.0000    0.0000    0.0000 C   0  0  0  0  0  0  0  0  0  0  0  0
    0.0000    0.0000    0.0000 N   0  0  0  0  0  0  0  0  0  0  0  0
    0.0000    0.0000    0.0000 C   0  0  0  0  0  0  0  0  0  0  0  0
    0.0000    0.0000    0.0000 C   0  0  0  0  0  0  0  0  0  0  0  0
    0.0000    0.0000    0.0000 C   0  0  0  0  0  0  0  0  0  0  0  0
    0.0000    0.0000    0.0000 C   0  0  0  0  0  0  0  0  0  0  0  0
    0.0000    0.0000    0.0000 C   0  0  0  0  0  0  0  0  0  0  0  0
    0.0000    0.0000    0.0000 N   0  0  0  0  0  0  0  0  0  0  0  0
    0.0000    0.0000    0.0000 C   0  0  0  0  0  0  0  0  0  0  0  0
    0.0000    0.0000    0.0000 N   0  0  0  0  0  0  0  0  0  0  0  0
    0.0000    0.0000    0.0000 C   0  0  0  0  0  0  0  0  0  0  0  0
    0.0000    0.0000    0.0000 O   0  0  0  0  0  0  0  0  0  0  0  0
    0.0000    0.0000    0.0000 C   0  0  0  0  0  0  0  0  0  0  0  0
    0.0000    0.0000    0.0000 C   0  0  0  0  0  0  0  0  0  0  0  0
    0.0000    0.0000    0.0000 C   0  0  0  0  0  0  0  0  0  0  0  0
    0.0000    0.0000    0.0000 C   0  0  0  0  0  0  0  0  0  0  0  0
    0.0000    0.0000    0.0000 C   0  0  0  0  0  0  0  0  0  0  0  0
    0.0000    0.0000    0.0000 C   0  0  0  0  0  0  0  0  0  0  0  0
    0.0000    0.0000    0.0000 C   0  0  0  0  0  0  0  0  0  0  0  0
    0.0000    0.0000    0.0000 C   0  0  0  0  0  0  0  0  0  0  0  0
    0.0000    0.0000    0.0000 C   0  0  0  0  0  0  0  0  0  0  0  0
    0.0000    0.0000    0.0000 C   0  0  0  0  0  0  0  0  0  0  0  0
    0.0000    0.0000    0.0000 Cl  0  0  0  0  0  0  0  0  0  0  0  0
    0.0000    0.0000    0.0000 C   0  0  0  0  0  0  0  0  0  0  0  0
    0.0000    0.0000    0.0000 C   0  0  0  0  0  0  0  0  0  0  0  0
  1  2  1  0
  2  3  1  0
  3  4  1  0
  4  5  1  0
  5  6  1  0
  6  7  1  0
  7  8  1  0
  8  9  1  0
  9 10  1  0
 10 11  1  0
 11 12  1  0
 12 13  1  0
 11 14  1  0
 14 15  1  0
 15 16  1  0
 16 17  1  0
 17 18  2  0
 14 19  1  0
 19 20  2  0
 20 21  1  0
 21 22  2  0
 22 23  1  0
 23 24  2  0
  2 25  1  0
 25 26  2  0
 26 27  1  0
 27 28  2  0
 28 29  1  0
 28 30  1  0
 30 31  2  0
  7  2  1  0
 13  8  1  0
 17 11  1  0
 24 19  1  0
 31 25  1  0
M  END
>  <pIC50>  (284) 
5.44

>  <ChEMBL_ID>  (284) 
CHEMBL373170

>  <document_journal>  (284) 
Bioorg. Med. Chem. Lett.

>  <bao_endpoint>  (284) 
BAO_0000190

>  <potential_duplicate>  (284) 
False

>  <uo_units>  (284) 
UO_0000065

>  <canonical_smiles>  (284) 
O[C@]1(CCCC[C@H]1N2CCC3(CC2)N(CNC3=O)c4ccccc4)c5ccc(Cl)cc5

>  <parent_molecule_chembl_id>  (284) 
CHEMBL373170

>  <assay_type>  (284) 
B

>  <src_id>  (284) 
1

>  <ligand_efficiency>  (284) 
{u'le': u'0.24', u'bei': u'12.37', u'sei': u'9.75', u'lle': u'1.41'}

>  <standard_flag>  (284) 
True

>  <molecule_chembl_id>  (284) 
CHEMBL373170

>  <target_organism>  (284) 
Homo sapiens

>  <standard_units>  (284) 
nM

>  <record_id>  (284) 
412897

>  <document_chembl_id>  (284) 
CHEMBL1147765

>  <bao_format>  (284) 
BAO_0000219

>  <data_validity_description>  (284) 
None

>  <activity_id>  (284) 
1665909

>  <standard_type>  (284) 
IC50

>  <target_chembl_id>  (284) 
CHEMBL233

>  <data_validity_comment>  (284) 
None

>  <published_value>  (284) 
3.6

>  <document_year>  (284) 
2006

>  <target_pref_name>  (284) 
Mu opioid receptor

>  <assay_chembl_id>  (284) 
CHEMBL860261

>  <standard_relation>  (284) 
=

>  <assay_description>  (284) 
Displacement of [3H]naloxone from human mu opioid receptor expressed in BHK cells

>  <published_relation>  (284) 
=

>  <standard_value>  (284) 
3600

>  <qudt_units>  (284) 
http://www.openphacts.org/units/Nanomolar

>  <target_tax_id>  (284) 
9606

>  <bao_label>  (284) 
cell-based format

>  <published_units>  (284) 
uM

>  <pchembl_value>  (284) 
5.44

>  <published_type>  (284) 
IC50

>  <activity_comment>  (284) 
None

$$$$

     RDKit          

 31 35  0  0  0  0  0  0  0  0999 V2000
    0.0000    0.0000    0.0000 C   0  0  0  0  0  0  0  0  0  0  0  0
    0.0000    0.0000    0.0000 C   0  0  0  0  0  0  0  0  0  0  0  0
    0.0000    0.0000    0.0000 C   0  0  0  0  0  0  0  0  0  0  0  0
    0.0000    0.0000    0.0000 C   0  0  0  0  0  0  0  0  0  0  0  0
    0.0000    0.0000    0.0000 C   0  0  0  0  0  0  0  0  0  0  0  0
    0.0000    0.0000    0.0000 C   0  0  0  0  0  0  0  0  0  0  0  0
    0.0000    0.0000    0.0000 C   0  0  0  0  0  0  0  0  0  0  0  0
    0.0000    0.0000    0.0000 C   0  0  0  0  0  0  0  0  0  0  0  0
    0.0000    0.0000    0.0000 O   0  0  0  0  0  0  0  0  0  0  0  0
    0.0000    0.0000    0.0000 C   0  0  0  0  0  0  0  0  0  0  0  0
    0.0000    0.0000    0.0000 C   0  0  0  0  0  0  0  0  0  0  0  0
    0.0000    0.0000    0.0000 C   0  0  0  0  0  0  0  0  0  0  0  0
    0.0000    0.0000    0.0000 C   0  0  0  0  0  0  0  0  0  0  0  0
    0.0000    0.0000    0.0000 C   0  0  0  0  0  0  0  0  0  0  0  0
    0.0000    0.0000    0.0000 N   0  0  0  0  0  0  0  0  0  0  0  0
    0.0000    0.0000    0.0000 C   0  0  0  0  0  0  0  0  0  0  0  0
    0.0000    0.0000    0.0000 C   0  0  0  0  0  0  0  0  0  0  0  0
    0.0000    0.0000    0.0000 C   0  0  0  0  0  0  0  0  0  0  0  0
    0.0000    0.0000    0.0000 C   0  0  0  0  0  0  0  0  0  0  0  0
    0.0000    0.0000    0.0000 C   0  0  0  0  0  0  0  0  0  0  0  0
    0.0000    0.0000    0.0000 N   0  0  0  0  0  0  0  0  0  0  0  0
    0.0000    0.0000    0.0000 C   0  0  0  0  0  0  0  0  0  0  0  0
    0.0000    0.0000    0.0000 N   0  0  0  0  0  0  0  0  0  0  0  0
    0.0000    0.0000    0.0000 C   0  0  0  0  0  0  0  0  0  0  0  0
    0.0000    0.0000    0.0000 O   0  0  0  0  0  0  0  0  0  0  0  0
    0.0000    0.0000    0.0000 C   0  0  0  0  0  0  0  0  0  0  0  0
    0.0000    0.0000    0.0000 C   0  0  0  0  0  0  0  0  0  0  0  0
    0.0000    0.0000    0.0000 C   0  0  0  0  0  0  0  0  0  0  0  0
    0.0000    0.0000    0.0000 C   0  0  0  0  0  0  0  0  0  0  0  0
    0.0000    0.0000    0.0000 C   0  0  0  0  0  0  0  0  0  0  0  0
    0.0000    0.0000    0.0000 C   0  0  0  0  0  0  0  0  0  0  0  0
  1  2  1  0
  2  3  2  0
  3  4  1  0
  4  5  2  0
  5  6  1  0
  6  7  2  0
  5  8  1  0
  8  9  1  0
  8 10  1  0
 10 11  1  0
 11 12  1  0
 12 13  1  0
 13 14  1  0
 14 15  1  0
 15 16  1  0
 16 17  1  0
 17 18  1  0
 18 19  1  0
 19 20  1  0
 18 21  1  0
 21 22  1  0
 22 23  1  0
 23 24  1  0
 24 25  2  0
 21 26  1  0
 26 27  2  0
 27 28  1  0
 28 29  2  0
 29 30  1  0
 30 31  2  0
  7  2  1  0
 14  8  1  0
 20 15  1  0
 24 18  1  0
 31 26  1  0
M  END
>  <pIC50>  (285) 
5.52

>  <ChEMBL_ID>  (285) 
CHEMBL200257

>  <document_journal>  (285) 
Bioorg. Med. Chem. Lett.

>  <bao_endpoint>  (285) 
BAO_0000190

>  <potential_duplicate>  (285) 
False

>  <uo_units>  (285) 
UO_0000065

>  <canonical_smiles>  (285) 
Cc1ccc(cc1)[C@]2(O)CCCC[C@H]2N3CCC4(CC3)N(CNC4=O)c5ccccc5

>  <parent_molecule_chembl_id>  (285) 
CHEMBL200257

>  <assay_type>  (285) 
B

>  <src_id>  (285) 
1

>  <ligand_efficiency>  (285) 
{u'le': u'0.24', u'bei': u'13.16', u'sei': u'9.9', u'lle': u'1.67'}

>  <standard_flag>  (285) 
True

>  <molecule_chembl_id>  (285) 
CHEMBL200257

>  <target_organism>  (285) 
Homo sapiens

>  <standard_units>  (285) 
nM

>  <record_id>  (285) 
412896

>  <document_chembl_id>  (285) 
CHEMBL1147765

>  <bao_format>  (285) 
BAO_0000219

>  <data_validity_description>  (285) 
None

>  <activity_id>  (285) 
1665910

>  <standard_type>  (285) 
IC50

>  <target_chembl_id>  (285) 
CHEMBL233

>  <data_validity_comment>  (285) 
None

>  <published_value>  (285) 
3

>  <document_year>  (285) 
2006

>  <target_pref_name>  (285) 
Mu opioid receptor

>  <assay_chembl_id>  (285) 
CHEMBL860261

>  <standard_relation>  (285) 
=

>  <assay_description>  (285) 
Displacement of [3H]naloxone from human mu opioid receptor expressed in BHK cells

>  <published_relation>  (285) 
=

>  <standard_value>  (285) 
3000

>  <qudt_units>  (285) 
http://www.openphacts.org/units/Nanomolar

>  <target_tax_id>  (285) 
9606

>  <bao_label>  (285) 
cell-based format

>  <published_units>  (285) 
uM

>  <pchembl_value>  (285) 
5.52

>  <published_type>  (285) 
IC50

>  <activity_comment>  (285) 
None

$$$$

     RDKit          

 32 36  0  0  0  0  0  0  0  0999 V2000
    0.0000    0.0000    0.0000 C   0  0  0  0  0  0  0  0  0  0  0  0
    0.0000    0.0000    0.0000 O   0  0  0  0  0  0  0  0  0  0  0  0
    0.0000    0.0000    0.0000 C   0  0  0  0  0  0  0  0  0  0  0  0
    0.0000    0.0000    0.0000 C   0  0  0  0  0  0  0  0  0  0  0  0
    0.0000    0.0000    0.0000 C   0  0  0  0  0  0  0  0  0  0  0  0
    0.0000    0.0000    0.0000 C   0  0  0  0  0  0  0  0  0  0  0  0
    0.0000    0.0000    0.0000 C   0  0  0  0  0  0  0  0  0  0  0  0
    0.0000    0.0000    0.0000 C   0  0  0  0  0  0  0  0  0  0  0  0
    0.0000    0.0000    0.0000 C   0  0  0  0  0  0  0  0  0  0  0  0
    0.0000    0.0000    0.0000 O   0  0  0  0  0  0  0  0  0  0  0  0
    0.0000    0.0000    0.0000 C   0  0  0  0  0  0  0  0  0  0  0  0
    0.0000    0.0000    0.0000 C   0  0  0  0  0  0  0  0  0  0  0  0
    0.0000    0.0000    0.0000 C   0  0  0  0  0  0  0  0  0  0  0  0
    0.0000    0.0000    0.0000 C   0  0  0  0  0  0  0  0  0  0  0  0
    0.0000    0.0000    0.0000 C   0  0  0  0  0  0  0  0  0  0  0  0
    0.0000    0.0000    0.0000 N   0  0  0  0  0  0  0  0  0  0  0  0
    0.0000    0.0000    0.0000 C   0  0  0  0  0  0  0  0  0  0  0  0
    0.0000    0.0000    0.0000 C   0  0  0  0  0  0  0  0  0  0  0  0
    0.0000    0.0000    0.0000 C   0  0  0  0  0  0  0  0  0  0  0  0
    0.0000    0.0000    0.0000 C   0  0  0  0  0  0  0  0  0  0  0  0
    0.0000    0.0000    0.0000 C   0  0  0  0  0  0  0  0  0  0  0  0
    0.0000    0.0000    0.0000 N   0  0  0  0  0  0  0  0  0  0  0  0
    0.0000    0.0000    0.0000 C   0  0  0  0  0  0  0  0  0  0  0  0
    0.0000    0.0000    0.0000 N   0  0  0  0  0  0  0  0  0  0  0  0
    0.0000    0.0000    0.0000 C   0  0  0  0  0  0  0  0  0  0  0  0
    0.0000    0.0000    0.0000 O   0  0  0  0  0  0  0  0  0  0  0  0
    0.0000    0.0000    0.0000 C   0  0  0  0  0  0  0  0  0  0  0  0
    0.0000    0.0000    0.0000 C   0  0  0  0  0  0  0  0  0  0  0  0
    0.0000    0.0000    0.0000 C   0  0  0  0  0  0  0  0  0  0  0  0
    0.0000    0.0000    0.0000 C   0  0  0  0  0  0  0  0  0  0  0  0
    0.0000    0.0000    0.0000 C   0  0  0  0  0  0  0  0  0  0  0  0
    0.0000    0.0000    0.0000 C   0  0  0  0  0  0  0  0  0  0  0  0
  1  2  1  0
  2  3  1  0
  3  4  2  0
  4  5  1  0
  5  6  2  0
  6  7  1  0
  7  8  2  0
  6  9  1  0
  9 10  1  0
  9 11  1  0
 11 12  1  0
 12 13  1  0
 13 14  1  0
 14 15  1  0
 15 16  1  0
 16 17  1  0
 17 18  1  0
 18 19  1  0
 19 20  1  0
 20 21  1  0
 19 22  1  0
 22 23  1  0
 23 24  1  0
 24 25  1  0
 25 26  2  0
 22 27  1  0
 27 28  2  0
 28 29  1  0
 29 30  2  0
 30 31  1  0
 31 32  2  0
  8  3  1  0
 15  9  1  0
 21 16  1  0
 25 19  1  0
 32 27  1  0
M  END
>  <pIC50>  (286) 
5.6

>  <ChEMBL_ID>  (286) 
CHEMBL371966

>  <document_journal>  (286) 
Bioorg. Med. Chem. Lett.

>  <bao_endpoint>  (286) 
BAO_0000190

>  <potential_duplicate>  (286) 
False

>  <uo_units>  (286) 
UO_0000065

>  <canonical_smiles>  (286) 
COc1ccc(cc1)[C@]2(O)CCCC[C@H]2N3CCC4(CC3)N(CNC4=O)c5ccccc5

>  <parent_molecule_chembl_id>  (286) 
CHEMBL371966

>  <assay_type>  (286) 
B

>  <src_id>  (286) 
1

>  <ligand_efficiency>  (286) 
{u'le': u'0.24', u'bei': u'12.86', u'sei': u'8.61', u'lle': u'2.25'}

>  <standard_flag>  (286) 
True

>  <molecule_chembl_id>  (286) 
CHEMBL371966

>  <target_organism>  (286) 
Homo sapiens

>  <standard_units>  (286) 
nM

>  <record_id>  (286) 
412895

>  <document_chembl_id>  (286) 
CHEMBL1147765

>  <bao_format>  (286) 
BAO_0000219

>  <data_validity_description>  (286) 
None

>  <activity_id>  (286) 
1665911

>  <standard_type>  (286) 
IC50

>  <target_chembl_id>  (286) 
CHEMBL233

>  <data_validity_comment>  (286) 
None

>  <published_value>  (286) 
2.5

>  <document_year>  (286) 
2006

>  <target_pref_name>  (286) 
Mu opioid receptor

>  <assay_chembl_id>  (286) 
CHEMBL860261

>  <standard_relation>  (286) 
=

>  <assay_description>  (286) 
Displacement of [3H]naloxone from human mu opioid receptor expressed in BHK cells

>  <published_relation>  (286) 
=

>  <standard_value>  (286) 
2500

>  <qudt_units>  (286) 
http://www.openphacts.org/units/Nanomolar

>  <target_tax_id>  (286) 
9606

>  <bao_label>  (286) 
cell-based format

>  <published_units>  (286) 
uM

>  <pchembl_value>  (286) 
5.6

>  <published_type>  (286) 
IC50

>  <activity_comment>  (286) 
None

$$$$

     RDKit          

 29 33  0  0  0  0  0  0  0  0999 V2000
    0.0000    0.0000    0.0000 O   0  0  0  0  0  0  0  0  0  0  0  0
    0.0000    0.0000    0.0000 C   0  0  0  0  0  0  0  0  0  0  0  0
    0.0000    0.0000    0.0000 N   0  0  0  0  0  0  0  0  0  0  0  0
    0.0000    0.0000    0.0000 C   0  0  0  0  0  0  0  0  0  0  0  0
    0.0000    0.0000    0.0000 N   0  0  0  0  0  0  0  0  0  0  0  0
    0.0000    0.0000    0.0000 C   0  0  0  0  0  0  0  0  0  0  0  0
    0.0000    0.0000    0.0000 C   0  0  0  0  0  0  0  0  0  0  0  0
    0.0000    0.0000    0.0000 C   0  0  0  0  0  0  0  0  0  0  0  0
    0.0000    0.0000    0.0000 C   0  0  0  0  0  0  0  0  0  0  0  0
    0.0000    0.0000    0.0000 C   0  0  0  0  0  0  0  0  0  0  0  0
    0.0000    0.0000    0.0000 C   0  0  0  0  0  0  0  0  0  0  0  0
    0.0000    0.0000    0.0000 C   0  0  0  0  0  0  0  0  0  0  0  0
    0.0000    0.0000    0.0000 C   0  0  0  0  0  0  0  0  0  0  0  0
    0.0000    0.0000    0.0000 C   0  0  0  0  0  0  0  0  0  0  0  0
    0.0000    0.0000    0.0000 N   0  0  0  0  0  0  0  0  0  0  0  0
    0.0000    0.0000    0.0000 C   0  0  0  0  0  0  0  0  0  0  0  0
    0.0000    0.0000    0.0000 C   0  0  0  0  0  0  0  0  0  0  0  0
    0.0000    0.0000    0.0000 C   0  0  0  0  0  0  0  0  0  0  0  0
    0.0000    0.0000    0.0000 C   0  0  0  0  0  0  0  0  0  0  0  0
    0.0000    0.0000    0.0000 C   0  0  0  0  0  0  0  0  0  0  0  0
    0.0000    0.0000    0.0000 C   0  0  0  0  0  0  0  0  0  0  0  0
    0.0000    0.0000    0.0000 C   0  0  0  0  0  0  0  0  0  0  0  0
    0.0000    0.0000    0.0000 C   0  0  0  0  0  0  0  0  0  0  0  0
    0.0000    0.0000    0.0000 C   0  0  0  0  0  0  0  0  0  0  0  0
    0.0000    0.0000    0.0000 C   0  0  0  0  0  0  0  0  0  0  0  0
    0.0000    0.0000    0.0000 C   0  0  0  0  0  0  0  0  0  0  0  0
    0.0000    0.0000    0.0000 C   0  0  0  0  0  0  0  0  0  0  0  0
    0.0000    0.0000    0.0000 C   0  0  0  0  0  0  0  0  0  0  0  0
    0.0000    0.0000    0.0000 C   0  0  0  0  0  0  0  0  0  0  0  0
  1  2  2  0
  2  3  1  0
  3  4  1  0
  4  5  1  0
  5  6  1  0
  6  7  2  0
  7  8  1  0
  8  9  2  0
  9 10  1  0
 10 11  2  0
  5 12  1  0
 12 13  1  0
 13 14  1  0
 14 15  1  0
 15 16  1  0
 16 17  1  0
 15 18  1  0
 18 19  1  0
 19 20  1  0
 20 21  1  0
 21 22  1  0
 22 23  1  0
 23 24  1  0
 24 25  2  0
 25 26  1  0
 26 27  2  0
 27 28  1  0
 28 29  2  0
 12  2  1  0
 11  6  1  0
 17 12  1  0
 23 18  1  0
 29 24  1  0
M  END
>  <pIC50>  (287) 
6.27

>  <ChEMBL_ID>  (287) 
CHEMBL371267

>  <document_journal>  (287) 
Bioorg. Med. Chem. Lett.

>  <bao_endpoint>  (287) 
BAO_0000190

>  <potential_duplicate>  (287) 
True

>  <uo_units>  (287) 
UO_0000065

>  <canonical_smiles>  (287) 
O=C1NCN(c2ccccc2)C13CCN(CC3)[C@@H]4CCCC[C@H]4c5ccccc5

>  <parent_molecule_chembl_id>  (287) 
CHEMBL371267

>  <assay_type>  (287) 
B

>  <src_id>  (287) 
1

>  <ligand_efficiency>  (287) 
{u'le': u'0.3', u'bei': u'16.09', u'sei': u'17.62', u'lle': u'2.03'}

>  <standard_flag>  (287) 
True

>  <molecule_chembl_id>  (287) 
CHEMBL371267

>  <target_organism>  (287) 
Homo sapiens

>  <standard_units>  (287) 
nM

>  <record_id>  (287) 
412892

>  <document_chembl_id>  (287) 
CHEMBL1147765

>  <bao_format>  (287) 
BAO_0000219

>  <data_validity_description>  (287) 
None

>  <activity_id>  (287) 
1665913

>  <standard_type>  (287) 
IC50

>  <target_chembl_id>  (287) 
CHEMBL233

>  <data_validity_comment>  (287) 
None

>  <published_value>  (287) 
0.54

>  <document_year>  (287) 
2006

>  <target_pref_name>  (287) 
Mu opioid receptor

>  <assay_chembl_id>  (287) 
CHEMBL860261

>  <standard_relation>  (287) 
=

>  <assay_description>  (287) 
Displacement of [3H]naloxone from human mu opioid receptor expressed in BHK cells

>  <published_relation>  (287) 
=

>  <standard_value>  (287) 
540

>  <qudt_units>  (287) 
http://www.openphacts.org/units/Nanomolar

>  <target_tax_id>  (287) 
9606

>  <bao_label>  (287) 
cell-based format

>  <published_units>  (287) 
uM

>  <pchembl_value>  (287) 
6.27

>  <published_type>  (287) 
IC50

>  <activity_comment>  (287) 
None

$$$$

     RDKit          

 30 34  0  0  0  0  0  0  0  0999 V2000
    0.0000    0.0000    0.0000 O   0  0  0  0  0  0  0  0  0  0  0  0
    0.0000    0.0000    0.0000 C   0  0  0  0  0  0  0  0  0  0  0  0
    0.0000    0.0000    0.0000 C   0  0  0  0  0  0  0  0  0  0  0  0
    0.0000    0.0000    0.0000 C   0  0  0  0  0  0  0  0  0  0  0  0
    0.0000    0.0000    0.0000 C   0  0  0  0  0  0  0  0  0  0  0  0
    0.0000    0.0000    0.0000 C   0  0  0  0  0  0  0  0  0  0  0  0
    0.0000    0.0000    0.0000 C   0  0  0  0  0  0  0  0  0  0  0  0
    0.0000    0.0000    0.0000 N   0  0  0  0  0  0  0  0  0  0  0  0
    0.0000    0.0000    0.0000 C   0  0  0  0  0  0  0  0  0  0  0  0
    0.0000    0.0000    0.0000 C   0  0  0  0  0  0  0  0  0  0  0  0
    0.0000    0.0000    0.0000 C   0  0  0  0  0  0  0  0  0  0  0  0
    0.0000    0.0000    0.0000 C   0  0  0  0  0  0  0  0  0  0  0  0
    0.0000    0.0000    0.0000 C   0  0  0  0  0  0  0  0  0  0  0  0
    0.0000    0.0000    0.0000 N   0  0  0  0  0  0  0  0  0  0  0  0
    0.0000    0.0000    0.0000 C   0  0  0  0  0  0  0  0  0  0  0  0
    0.0000    0.0000    0.0000 N   0  0  0  0  0  0  0  0  0  0  0  0
    0.0000    0.0000    0.0000 C   0  0  0  0  0  0  0  0  0  0  0  0
    0.0000    0.0000    0.0000 O   0  0  0  0  0  0  0  0  0  0  0  0
    0.0000    0.0000    0.0000 C   0  0  0  0  0  0  0  0  0  0  0  0
    0.0000    0.0000    0.0000 C   0  0  0  0  0  0  0  0  0  0  0  0
    0.0000    0.0000    0.0000 C   0  0  0  0  0  0  0  0  0  0  0  0
    0.0000    0.0000    0.0000 C   0  0  0  0  0  0  0  0  0  0  0  0
    0.0000    0.0000    0.0000 C   0  0  0  0  0  0  0  0  0  0  0  0
    0.0000    0.0000    0.0000 C   0  0  0  0  0  0  0  0  0  0  0  0
    0.0000    0.0000    0.0000 C   0  0  0  0  0  0  0  0  0  0  0  0
    0.0000    0.0000    0.0000 C   0  0  0  0  0  0  0  0  0  0  0  0
    0.0000    0.0000    0.0000 C   0  0  0  0  0  0  0  0  0  0  0  0
    0.0000    0.0000    0.0000 C   0  0  0  0  0  0  0  0  0  0  0  0
    0.0000    0.0000    0.0000 C   0  0  0  0  0  0  0  0  0  0  0  0
    0.0000    0.0000    0.0000 C   0  0  0  0  0  0  0  0  0  0  0  0
  1  2  1  0
  2  3  1  0
  3  4  1  0
  4  5  1  0
  5  6  1  0
  6  7  1  0
  7  8  1  0
  8  9  1  0
  9 10  1  0
 10 11  1  0
 11 12  1  0
 12 13  1  0
 11 14  1  0
 14 15  1  0
 15 16  1  0
 16 17  1  0
 17 18  2  0
 14 19  1  0
 19 20  2  0
 20 21  1  0
 21 22  2  0
 22 23  1  0
 23 24  2  0
  2 25  1  0
 25 26  2  0
 26 27  1  0
 27 28  2  0
 28 29  1  0
 29 30  2  0
  7  2  1  0
 13  8  1  0
 17 11  1  0
 24 19  1  0
 30 25  1  0
M  END
>  <pIC50>  (288) 
5.8

>  <ChEMBL_ID>  (288) 
CHEMBL200371

>  <document_journal>  (288) 
Bioorg. Med. Chem. Lett.

>  <bao_endpoint>  (288) 
BAO_0000190

>  <potential_duplicate>  (288) 
False

>  <uo_units>  (288) 
UO_0000065

>  <canonical_smiles>  (288) 
O[C@]1(CCCC[C@@H]1N2CCC3(CC2)N(CNC3=O)c4ccccc4)c5ccccc5

>  <parent_molecule_chembl_id>  (288) 
CHEMBL200371

>  <assay_type>  (288) 
F

>  <src_id>  (288) 
1

>  <ligand_efficiency>  (288) 
None

>  <standard_flag>  (288) 
True

>  <molecule_chembl_id>  (288) 
CHEMBL200371

>  <target_organism>  (288) 
Homo sapiens

>  <standard_units>  (288) 
nM

>  <record_id>  (288) 
412893

>  <document_chembl_id>  (288) 
CHEMBL1147765

>  <bao_format>  (288) 
BAO_0000219

>  <data_validity_description>  (288) 
None

>  <activity_id>  (288) 
1665918

>  <standard_type>  (288) 
IC50

>  <target_chembl_id>  (288) 
CHEMBL233

>  <data_validity_comment>  (288) 
None

>  <published_value>  (288) 
1.6

>  <document_year>  (288) 
2006

>  <target_pref_name>  (288) 
Mu opioid receptor

>  <assay_chembl_id>  (288) 
CHEMBL859304

>  <standard_relation>  (288) 
=

>  <assay_description>  (288) 
Inhibitory activity at human mu opioid receptor in BHK cells by GTPgammaS binding assay

>  <published_relation>  (288) 
=

>  <standard_value>  (288) 
1600

>  <qudt_units>  (288) 
http://www.openphacts.org/units/Nanomolar

>  <target_tax_id>  (288) 
9606

>  <bao_label>  (288) 
cell-based format

>  <published_units>  (288) 
uM

>  <pchembl_value>  (288) 
5.8

>  <published_type>  (288) 
IC50

>  <activity_comment>  (288) 
None

$$$$

     RDKit          

 30 34  0  0  0  0  0  0  0  0999 V2000
    0.0000    0.0000    0.0000 O   0  0  0  0  0  0  0  0  0  0  0  0
    0.0000    0.0000    0.0000 C   0  0  0  0  0  0  0  0  0  0  0  0
    0.0000    0.0000    0.0000 C   0  0  0  0  0  0  0  0  0  0  0  0
    0.0000    0.0000    0.0000 C   0  0  0  0  0  0  0  0  0  0  0  0
    0.0000    0.0000    0.0000 C   0  0  0  0  0  0  0  0  0  0  0  0
    0.0000    0.0000    0.0000 C   0  0  0  0  0  0  0  0  0  0  0  0
    0.0000    0.0000    0.0000 C   0  0  0  0  0  0  0  0  0  0  0  0
    0.0000    0.0000    0.0000 N   0  0  0  0  0  0  0  0  0  0  0  0
    0.0000    0.0000    0.0000 C   0  0  0  0  0  0  0  0  0  0  0  0
    0.0000    0.0000    0.0000 C   0  0  0  0  0  0  0  0  0  0  0  0
    0.0000    0.0000    0.0000 C   0  0  0  0  0  0  0  0  0  0  0  0
    0.0000    0.0000    0.0000 C   0  0  0  0  0  0  0  0  0  0  0  0
    0.0000    0.0000    0.0000 C   0  0  0  0  0  0  0  0  0  0  0  0
    0.0000    0.0000    0.0000 N   0  0  0  0  0  0  0  0  0  0  0  0
    0.0000    0.0000    0.0000 C   0  0  0  0  0  0  0  0  0  0  0  0
    0.0000    0.0000    0.0000 N   0  0  0  0  0  0  0  0  0  0  0  0
    0.0000    0.0000    0.0000 C   0  0  0  0  0  0  0  0  0  0  0  0
    0.0000    0.0000    0.0000 O   0  0  0  0  0  0  0  0  0  0  0  0
    0.0000    0.0000    0.0000 C   0  0  0  0  0  0  0  0  0  0  0  0
    0.0000    0.0000    0.0000 C   0  0  0  0  0  0  0  0  0  0  0  0
    0.0000    0.0000    0.0000 C   0  0  0  0  0  0  0  0  0  0  0  0
    0.0000    0.0000    0.0000 C   0  0  0  0  0  0  0  0  0  0  0  0
    0.0000    0.0000    0.0000 C   0  0  0  0  0  0  0  0  0  0  0  0
    0.0000    0.0000    0.0000 C   0  0  0  0  0  0  0  0  0  0  0  0
    0.0000    0.0000    0.0000 C   0  0  0  0  0  0  0  0  0  0  0  0
    0.0000    0.0000    0.0000 C   0  0  0  0  0  0  0  0  0  0  0  0
    0.0000    0.0000    0.0000 C   0  0  0  0  0  0  0  0  0  0  0  0
    0.0000    0.0000    0.0000 C   0  0  0  0  0  0  0  0  0  0  0  0
    0.0000    0.0000    0.0000 C   0  0  0  0  0  0  0  0  0  0  0  0
    0.0000    0.0000    0.0000 C   0  0  0  0  0  0  0  0  0  0  0  0
  1  2  1  0
  2  3  1  0
  3  4  1  0
  4  5  1  0
  5  6  1  0
  6  7  1  0
  7  8  1  0
  8  9  1  0
  9 10  1  0
 10 11  1  0
 11 12  1  0
 12 13  1  0
 11 14  1  0
 14 15  1  0
 15 16  1  0
 16 17  1  0
 17 18  2  0
 14 19  1  0
 19 20  2  0
 20 21  1  0
 21 22  2  0
 22 23  1  0
 23 24  2  0
  2 25  1  0
 25 26  2  0
 26 27  1  0
 27 28  2  0
 28 29  1  0
 29 30  2  0
  7  2  1  0
 13  8  1  0
 17 11  1  0
 24 19  1  0
 30 25  1  0
M  END
>  <pIC50>  (289) 
5.57

>  <ChEMBL_ID>  (289) 
CHEMBL200204

>  <document_journal>  (289) 
Bioorg. Med. Chem. Lett.

>  <bao_endpoint>  (289) 
BAO_0000190

>  <potential_duplicate>  (289) 
False

>  <uo_units>  (289) 
UO_0000065

>  <canonical_smiles>  (289) 
O[C@]1(CCCC[C@H]1N2CCC3(CC2)N(CNC3=O)c4ccccc4)c5ccccc5

>  <parent_molecule_chembl_id>  (289) 
CHEMBL200204

>  <assay_type>  (289) 
F

>  <src_id>  (289) 
1

>  <ligand_efficiency>  (289) 
None

>  <standard_flag>  (289) 
True

>  <molecule_chembl_id>  (289) 
CHEMBL200204

>  <target_organism>  (289) 
Homo sapiens

>  <standard_units>  (289) 
nM

>  <record_id>  (289) 
412894

>  <document_chembl_id>  (289) 
CHEMBL1147765

>  <bao_format>  (289) 
BAO_0000219

>  <data_validity_description>  (289) 
None

>  <activity_id>  (289) 
1665919

>  <standard_type>  (289) 
IC50

>  <target_chembl_id>  (289) 
CHEMBL233

>  <data_validity_comment>  (289) 
None

>  <published_value>  (289) 
2.7

>  <document_year>  (289) 
2006

>  <target_pref_name>  (289) 
Mu opioid receptor

>  <assay_chembl_id>  (289) 
CHEMBL859304

>  <standard_relation>  (289) 
=

>  <assay_description>  (289) 
Inhibitory activity at human mu opioid receptor in BHK cells by GTPgammaS binding assay

>  <published_relation>  (289) 
=

>  <standard_value>  (289) 
2700

>  <qudt_units>  (289) 
http://www.openphacts.org/units/Nanomolar

>  <target_tax_id>  (289) 
9606

>  <bao_label>  (289) 
cell-based format

>  <published_units>  (289) 
uM

>  <pchembl_value>  (289) 
5.57

>  <published_type>  (289) 
IC50

>  <activity_comment>  (289) 
None

$$$$

     RDKit          

 68 72  0  0  0  0  0  0  0  0999 V2000
    0.0000    0.0000    0.0000 N   0  0  0  0  0  0  0  0  0  0  0  0
    0.0000    0.0000    0.0000 C   0  0  0  0  0  0  0  0  0  0  0  0
    0.0000    0.0000    0.0000 C   0  0  0  0  0  0  0  0  0  0  0  0
    0.0000    0.0000    0.0000 C   0  0  0  0  0  0  0  0  0  0  0  0
    0.0000    0.0000    0.0000 C   0  0  0  0  0  0  0  0  0  0  0  0
    0.0000    0.0000    0.0000 C   0  0  0  0  0  0  0  0  0  0  0  0
    0.0000    0.0000    0.0000 C   0  0  0  0  0  0  0  0  0  0  0  0
    0.0000    0.0000    0.0000 O   0  0  0  0  0  0  0  0  0  0  0  0
    0.0000    0.0000    0.0000 C   0  0  0  0  0  0  0  0  0  0  0  0
    0.0000    0.0000    0.0000 C   0  0  0  0  0  0  0  0  0  0  0  0
    0.0000    0.0000    0.0000 C   0  0  0  0  0  0  0  0  0  0  0  0
    0.0000    0.0000    0.0000 O   0  0  0  0  0  0  0  0  0  0  0  0
    0.0000    0.0000    0.0000 N   0  0  0  0  0  0  0  0  0  0  0  0
    0.0000    0.0000    0.0000 C   0  0  0  0  0  0  0  0  0  0  0  0
    0.0000    0.0000    0.0000 C   0  0  0  0  0  0  0  0  0  0  0  0
    0.0000    0.0000    0.0000 S   0  0  0  0  0  0  0  0  0  0  0  0
    0.0000    0.0000    0.0000 S   0  0  0  0  0  0  0  0  0  0  0  0
    0.0000    0.0000    0.0000 C   0  0  0  0  0  0  0  0  0  0  0  0
    0.0000    0.0000    0.0000 C   0  0  0  0  0  0  0  0  0  0  0  0
    0.0000    0.0000    0.0000 N   0  0  0  0  0  0  0  0  0  0  0  0
    0.0000    0.0000    0.0000 C   0  0  0  0  0  0  0  0  0  0  0  0
    0.0000    0.0000    0.0000 O   0  0  0  0  0  0  0  0  0  0  0  0
    0.0000    0.0000    0.0000 C   0  0  0  0  0  0  0  0  0  0  0  0
    0.0000    0.0000    0.0000 N   0  0  0  0  0  0  0  0  0  0  0  0
    0.0000    0.0000    0.0000 C   0  0  0  0  0  0  0  0  0  0  0  0
    0.0000    0.0000    0.0000 C   0  0  0  0  0  0  0  0  0  0  0  0
    0.0000    0.0000    0.0000 C   0  0  0  0  0  0  0  0  0  0  0  0
    0.0000    0.0000    0.0000 C   0  0  0  0  0  0  0  0  0  0  0  0
    0.0000    0.0000    0.0000 C   0  0  0  0  0  0  0  0  0  0  0  0
    0.0000    0.0000    0.0000 O   0  0  0  0  0  0  0  0  0  0  0  0
    0.0000    0.0000    0.0000 C   0  0  0  0  0  0  0  0  0  0  0  0
    0.0000    0.0000    0.0000 C   0  0  0  0  0  0  0  0  0  0  0  0
    0.0000    0.0000    0.0000 C   0  0  0  0  0  0  0  0  0  0  0  0
    0.0000    0.0000    0.0000 O   0  0  0  0  0  0  0  0  0  0  0  0
    0.0000    0.0000    0.0000 N   0  0  0  0  0  0  0  0  0  0  0  0
    0.0000    0.0000    0.0000 C   0  0  0  0  0  0  0  0  0  0  0  0
    0.0000    0.0000    0.0000 C   0  0  0  0  0  0  0  0  0  0  0  0
    0.0000    0.0000    0.0000 O   0  0  0  0  0  0  0  0  0  0  0  0
    0.0000    0.0000    0.0000 N   0  0  0  0  0  0  0  0  0  0  0  0
    0.0000    0.0000    0.0000 C   0  0  0  0  0  0  0  0  0  0  0  0
    0.0000    0.0000    0.0000 C   0  0  0  0  0  0  0  0  0  0  0  0
    0.0000    0.0000    0.0000 C   0  0  0  0  0  0  0  0  0  0  0  0
    0.0000    0.0000    0.0000 C   0  0  0  0  0  0  0  0  0  0  0  0
    0.0000    0.0000    0.0000 C   0  0  0  0  0  0  0  0  0  0  0  0
    0.0000    0.0000    0.0000 C   0  0  0  0  0  0  0  0  0  0  0  0
    0.0000    0.0000    0.0000 C   0  0  0  0  0  0  0  0  0  0  0  0
    0.0000    0.0000    0.0000 C   0  0  0  0  0  0  0  0  0  0  0  0
    0.0000    0.0000    0.0000 C   0  0  0  0  0  0  0  0  0  0  0  0
    0.0000    0.0000    0.0000 O   0  0  0  0  0  0  0  0  0  0  0  0
    0.0000    0.0000    0.0000 N   0  0  0  0  0  0  0  0  0  0  0  0
    0.0000    0.0000    0.0000 N   0  0  0  0  0  0  0  0  0  0  0  0
    0.0000    0.0000    0.0000 C   0  0  0  0  0  0  0  0  0  0  0  0
    0.0000    0.0000    0.0000 O   0  0  0  0  0  0  0  0  0  0  0  0
    0.0000    0.0000    0.0000 C   0  0  0  0  0  0  0  0  0  0  0  0
    0.0000    0.0000    0.0000 C   0  0  0  0  0  0  0  0  0  0  0  0
    0.0000    0.0000    0.0000 C   0  0  0  0  0  0  0  0  0  0  0  0
    0.0000    0.0000    0.0000 C   0  0  0  0  0  0  0  0  0  0  0  0
    0.0000    0.0000    0.0000 C   0  0  0  0  0  0  0  0  0  0  0  0
    0.0000    0.0000    0.0000 C   0  0  0  0  0  0  0  0  0  0  0  0
    0.0000    0.0000    0.0000 C   0  0  0  0  0  0  0  0  0  0  0  0
    0.0000    0.0000    0.0000 C   0  0  0  0  0  0  0  0  0  0  0  0
    0.0000    0.0000    0.0000 N   0  0  0  0  0  0  0  0  0  0  0  0
    0.0000    0.0000    0.0000 C   0  0  0  0  0  0  0  0  0  0  0  0
    0.0000    0.0000    0.0000 O   0  0  0  0  0  0  0  0  0  0  0  0
    0.0000    0.0000    0.0000 C   0  0  0  0  0  0  0  0  0  0  0  0
    0.0000    0.0000    0.0000 N   0  0  0  0  0  0  0  0  0  0  0  0
    0.0000    0.0000    0.0000 C   0  0  0  0  0  0  0  0  0  0  0  0
    0.0000    0.0000    0.0000 O   0  0  0  0  0  0  0  0  0  0  0  0
  1  2  1  0
  2  3  1  0
  3  4  1  0
  4  5  2  0
  5  6  1  0
  6  7  2  0
  7  8  1  0
  7  9  1  0
  9 10  2  0
  2 11  1  0
 11 12  2  0
 11 13  1  0
 13 14  1  0
 14 15  1  0
 15 16  1  0
 16 17  1  0
 17 18  1  0
 18 19  1  0
 19 20  1  0
 20 21  1  0
 21 22  2  0
 21 23  1  0
 23 24  1  0
 23 25  1  0
 25 26  1  0
 26 27  2  0
 27 28  1  0
 28 29  2  0
 29 30  1  0
 29 31  1  0
 31 32  2  0
 19 33  1  0
 33 34  2  0
 33 35  1  0
 35 36  1  0
 36 37  1  0
 37 38  2  0
 37 39  1  0
 39 40  1  0
 40 41  1  0
 41 42  1  0
 42 43  2  0
 43 44  1  0
 44 45  2  0
 45 46  1  0
 46 47  2  0
 40 48  1  0
 48 49  2  0
 48 50  1  0
 50 51  1  0
 51 52  1  0
 52 53  2  0
 52 54  1  0
 54 55  1  0
 55 56  1  0
 56 57  2  0
 57 58  1  0
 58 59  2  0
 59 60  1  0
 60 61  2  0
 54 62  1  0
 62 63  1  0
 63 64  2  0
 63 65  1  0
 65 66  1  0
 66 67  1  0
 67 68  2  0
 10  4  1  0
 67 14  1  0
 32 26  1  0
 47 42  1  0
 61 56  1  0
M  END
>  <pIC50>  (290) 
9.22

>  <ChEMBL_ID>  (290) 
CHEMBL200129

>  <document_journal>  (290) 
Bioorg. Med. Chem. Lett.

>  <bao_endpoint>  (290) 
BAO_0000190

>  <potential_duplicate>  (290) 
False

>  <uo_units>  (290) 
UO_0000065

>  <canonical_smiles>  (290) 
N[C@@H](Cc1ccc(O)cc1)C(=O)N[C@@H]2CSSC[C@@H](NC(=O)[C@@H](N)Cc3ccc(O)cc3)C(=O)NCC(=O)N[C@@H](Cc4ccccc4)C(=O)NNC(=O)[C@H](Cc5ccccc5)NC(=O)CNC2=O

>  <parent_molecule_chembl_id>  (290) 
CHEMBL200129

>  <assay_type>  (290) 
B

>  <src_id>  (290) 
1

>  <ligand_efficiency>  (290) 
{u'le': u'0.19', u'bei': u'9.5', u'sei': u'2.45', u'lle': u'9.27'}

>  <standard_flag>  (290) 
True

>  <molecule_chembl_id>  (290) 
CHEMBL200129

>  <target_organism>  (290) 
Homo sapiens

>  <standard_units>  (290) 
nM

>  <record_id>  (290) 
413070

>  <document_chembl_id>  (290) 
CHEMBL1147769

>  <bao_format>  (290) 
BAO_0000357

>  <data_validity_description>  (290) 
None

>  <activity_id>  (290) 
1666040

>  <standard_type>  (290) 
IC50

>  <target_chembl_id>  (290) 
CHEMBL233

>  <data_validity_comment>  (290) 
None

>  <published_value>  (290) 
0.6

>  <document_year>  (290) 
2006

>  <target_pref_name>  (290) 
Mu opioid receptor

>  <assay_chembl_id>  (290) 
CHEMBL870570

>  <standard_relation>  (290) 
=

>  <assay_description>  (290) 
Displacement of [3H]DAMGO from mu opioid receptor

>  <published_relation>  (290) 
=

>  <standard_value>  (290) 
0.6

>  <qudt_units>  (290) 
http://www.openphacts.org/units/Nanomolar

>  <target_tax_id>  (290) 
9606

>  <bao_label>  (290) 
single protein format

>  <published_units>  (290) 
nM

>  <pchembl_value>  (290) 
9.22

>  <published_type>  (290) 
IC50

>  <activity_comment>  (290) 
None

$$$$

     RDKit          

 68 72  0  0  0  0  0  0  0  0999 V2000
    0.0000    0.0000    0.0000 N   0  0  0  0  0  0  0  0  0  0  0  0
    0.0000    0.0000    0.0000 C   0  0  0  0  0  0  0  0  0  0  0  0
    0.0000    0.0000    0.0000 C   0  0  0  0  0  0  0  0  0  0  0  0
    0.0000    0.0000    0.0000 C   0  0  0  0  0  0  0  0  0  0  0  0
    0.0000    0.0000    0.0000 C   0  0  0  0  0  0  0  0  0  0  0  0
    0.0000    0.0000    0.0000 C   0  0  0  0  0  0  0  0  0  0  0  0
    0.0000    0.0000    0.0000 C   0  0  0  0  0  0  0  0  0  0  0  0
    0.0000    0.0000    0.0000 O   0  0  0  0  0  0  0  0  0  0  0  0
    0.0000    0.0000    0.0000 C   0  0  0  0  0  0  0  0  0  0  0  0
    0.0000    0.0000    0.0000 C   0  0  0  0  0  0  0  0  0  0  0  0
    0.0000    0.0000    0.0000 C   0  0  0  0  0  0  0  0  0  0  0  0
    0.0000    0.0000    0.0000 O   0  0  0  0  0  0  0  0  0  0  0  0
    0.0000    0.0000    0.0000 N   0  0  0  0  0  0  0  0  0  0  0  0
    0.0000    0.0000    0.0000 C   0  0  0  0  0  0  0  0  0  0  0  0
    0.0000    0.0000    0.0000 C   0  0  0  0  0  0  0  0  0  0  0  0
    0.0000    0.0000    0.0000 S   0  0  0  0  0  0  0  0  0  0  0  0
    0.0000    0.0000    0.0000 S   0  0  0  0  0  0  0  0  0  0  0  0
    0.0000    0.0000    0.0000 C   0  0  0  0  0  0  0  0  0  0  0  0
    0.0000    0.0000    0.0000 C   0  0  0  0  0  0  0  0  0  0  0  0
    0.0000    0.0000    0.0000 N   0  0  0  0  0  0  0  0  0  0  0  0
    0.0000    0.0000    0.0000 C   0  0  0  0  0  0  0  0  0  0  0  0
    0.0000    0.0000    0.0000 O   0  0  0  0  0  0  0  0  0  0  0  0
    0.0000    0.0000    0.0000 C   0  0  0  0  0  0  0  0  0  0  0  0
    0.0000    0.0000    0.0000 N   0  0  0  0  0  0  0  0  0  0  0  0
    0.0000    0.0000    0.0000 C   0  0  0  0  0  0  0  0  0  0  0  0
    0.0000    0.0000    0.0000 C   0  0  0  0  0  0  0  0  0  0  0  0
    0.0000    0.0000    0.0000 C   0  0  0  0  0  0  0  0  0  0  0  0
    0.0000    0.0000    0.0000 C   0  0  0  0  0  0  0  0  0  0  0  0
    0.0000    0.0000    0.0000 C   0  0  0  0  0  0  0  0  0  0  0  0
    0.0000    0.0000    0.0000 O   0  0  0  0  0  0  0  0  0  0  0  0
    0.0000    0.0000    0.0000 C   0  0  0  0  0  0  0  0  0  0  0  0
    0.0000    0.0000    0.0000 C   0  0  0  0  0  0  0  0  0  0  0  0
    0.0000    0.0000    0.0000 C   0  0  0  0  0  0  0  0  0  0  0  0
    0.0000    0.0000    0.0000 O   0  0  0  0  0  0  0  0  0  0  0  0
    0.0000    0.0000    0.0000 N   0  0  0  0  0  0  0  0  0  0  0  0
    0.0000    0.0000    0.0000 C   0  0  0  0  0  0  0  0  0  0  0  0
    0.0000    0.0000    0.0000 C   0  0  0  0  0  0  0  0  0  0  0  0
    0.0000    0.0000    0.0000 O   0  0  0  0  0  0  0  0  0  0  0  0
    0.0000    0.0000    0.0000 N   0  0  0  0  0  0  0  0  0  0  0  0
    0.0000    0.0000    0.0000 C   0  0  0  0  0  0  0  0  0  0  0  0
    0.0000    0.0000    0.0000 C   0  0  0  0  0  0  0  0  0  0  0  0
    0.0000    0.0000    0.0000 C   0  0  0  0  0  0  0  0  0  0  0  0
    0.0000    0.0000    0.0000 C   0  0  0  0  0  0  0  0  0  0  0  0
    0.0000    0.0000    0.0000 C   0  0  0  0  0  0  0  0  0  0  0  0
    0.0000    0.0000    0.0000 C   0  0  0  0  0  0  0  0  0  0  0  0
    0.0000    0.0000    0.0000 C   0  0  0  0  0  0  0  0  0  0  0  0
    0.0000    0.0000    0.0000 C   0  0  0  0  0  0  0  0  0  0  0  0
    0.0000    0.0000    0.0000 C   0  0  0  0  0  0  0  0  0  0  0  0
    0.0000    0.0000    0.0000 O   0  0  0  0  0  0  0  0  0  0  0  0
    0.0000    0.0000    0.0000 N   0  0  0  0  0  0  0  0  0  0  0  0
    0.0000    0.0000    0.0000 N   0  0  0  0  0  0  0  0  0  0  0  0
    0.0000    0.0000    0.0000 C   0  0  0  0  0  0  0  0  0  0  0  0
    0.0000    0.0000    0.0000 O   0  0  0  0  0  0  0  0  0  0  0  0
    0.0000    0.0000    0.0000 C   0  0  0  0  0  0  0  0  0  0  0  0
    0.0000    0.0000    0.0000 C   0  0  0  0  0  0  0  0  0  0  0  0
    0.0000    0.0000    0.0000 C   0  0  0  0  0  0  0  0  0  0  0  0
    0.0000    0.0000    0.0000 C   0  0  0  0  0  0  0  0  0  0  0  0
    0.0000    0.0000    0.0000 C   0  0  0  0  0  0  0  0  0  0  0  0
    0.0000    0.0000    0.0000 C   0  0  0  0  0  0  0  0  0  0  0  0
    0.0000    0.0000    0.0000 C   0  0  0  0  0  0  0  0  0  0  0  0
    0.0000    0.0000    0.0000 C   0  0  0  0  0  0  0  0  0  0  0  0
    0.0000    0.0000    0.0000 N   0  0  0  0  0  0  0  0  0  0  0  0
    0.0000    0.0000    0.0000 C   0  0  0  0  0  0  0  0  0  0  0  0
    0.0000    0.0000    0.0000 O   0  0  0  0  0  0  0  0  0  0  0  0
    0.0000    0.0000    0.0000 C   0  0  0  0  0  0  0  0  0  0  0  0
    0.0000    0.0000    0.0000 N   0  0  0  0  0  0  0  0  0  0  0  0
    0.0000    0.0000    0.0000 C   0  0  0  0  0  0  0  0  0  0  0  0
    0.0000    0.0000    0.0000 O   0  0  0  0  0  0  0  0  0  0  0  0
  1  2  1  0
  2  3  1  0
  3  4  1  0
  4  5  2  0
  5  6  1  0
  6  7  2  0
  7  8  1  0
  7  9  1  0
  9 10  2  0
  2 11  1  0
 11 12  2  0
 11 13  1  0
 13 14  1  0
 14 15  1  0
 15 16  1  0
 16 17  1  0
 17 18  1  0
 18 19  1  0
 19 20  1  0
 20 21  1  0
 21 22  2  0
 21 23  1  0
 23 24  1  0
 23 25  1  0
 25 26  1  0
 26 27  2  0
 27 28  1  0
 28 29  2  0
 29 30  1  0
 29 31  1  0
 31 32  2  0
 19 33  1  0
 33 34  2  0
 33 35  1  0
 35 36  1  0
 36 37  1  0
 37 38  2  0
 37 39  1  0
 39 40  1  0
 40 41  1  0
 41 42  1  0
 42 43  2  0
 43 44  1  0
 44 45  2  0
 45 46  1  0
 46 47  2  0
 40 48  1  0
 48 49  2  0
 48 50  1  0
 50 51  1  0
 51 52  1  0
 52 53  2  0
 52 54  1  0
 54 55  1  0
 55 56  1  0
 56 57  2  0
 57 58  1  0
 58 59  2  0
 59 60  1  0
 60 61  2  0
 54 62  1  0
 62 63  1  0
 63 64  2  0
 63 65  1  0
 65 66  1  0
 66 67  1  0
 67 68  2  0
 10  4  1  0
 67 14  1  0
 32 26  1  0
 47 42  1  0
 61 56  1  0
M  END
>  <pIC50>  (291) 
6.89

>  <ChEMBL_ID>  (291) 
CHEMBL372787

>  <document_journal>  (291) 
Bioorg. Med. Chem. Lett.

>  <bao_endpoint>  (291) 
BAO_0000190

>  <potential_duplicate>  (291) 
False

>  <uo_units>  (291) 
UO_0000065

>  <canonical_smiles>  (291) 
N[C@@H](Cc1ccc(O)cc1)C(=O)N[C@H]2CSSC[C@H](NC(=O)[C@@H](N)Cc3ccc(O)cc3)C(=O)NCC(=O)N[C@@H](Cc4ccccc4)C(=O)NNC(=O)[C@H](Cc5ccccc5)NC(=O)CNC2=O

>  <parent_molecule_chembl_id>  (291) 
CHEMBL372787

>  <assay_type>  (291) 
B

>  <src_id>  (291) 
1

>  <ligand_efficiency>  (291) 
{u'le': u'0.14', u'bei': u'7.09', u'sei': u'1.83', u'lle': u'6.94'}

>  <standard_flag>  (291) 
True

>  <molecule_chembl_id>  (291) 
CHEMBL372787

>  <target_organism>  (291) 
Homo sapiens

>  <standard_units>  (291) 
nM

>  <record_id>  (291) 
413069

>  <document_chembl_id>  (291) 
CHEMBL1147769

>  <bao_format>  (291) 
BAO_0000357

>  <data_validity_description>  (291) 
None

>  <activity_id>  (291) 
1666041

>  <standard_type>  (291) 
IC50

>  <target_chembl_id>  (291) 
CHEMBL233

>  <data_validity_comment>  (291) 
None

>  <published_value>  (291) 
130

>  <document_year>  (291) 
2006

>  <target_pref_name>  (291) 
Mu opioid receptor

>  <assay_chembl_id>  (291) 
CHEMBL870570

>  <standard_relation>  (291) 
=

>  <assay_description>  (291) 
Displacement of [3H]DAMGO from mu opioid receptor

>  <published_relation>  (291) 
=

>  <standard_value>  (291) 
130

>  <qudt_units>  (291) 
http://www.openphacts.org/units/Nanomolar

>  <target_tax_id>  (291) 
9606

>  <bao_label>  (291) 
single protein format

>  <published_units>  (291) 
nM

>  <pchembl_value>  (291) 
6.89

>  <published_type>  (291) 
IC50

>  <activity_comment>  (291) 
None

$$$$

     RDKit          

 31 35  0  0  0  0  0  0  0  0999 V2000
    0.0000    0.0000    0.0000 O   0  0  0  0  0  0  0  0  0  0  0  0
    0.0000    0.0000    0.0000 C   0  0  0  0  0  0  0  0  0  0  0  0
    0.0000    0.0000    0.0000 N   0  0  0  0  0  0  0  0  0  0  0  0
    0.0000    0.0000    0.0000 C   0  0  0  0  0  0  0  0  0  0  0  0
    0.0000    0.0000    0.0000 N   0  0  0  0  0  0  0  0  0  0  0  0
    0.0000    0.0000    0.0000 C   0  0  0  0  0  0  0  0  0  0  0  0
    0.0000    0.0000    0.0000 C   0  0  0  0  0  0  0  0  0  0  0  0
    0.0000    0.0000    0.0000 C   0  0  0  0  0  0  0  0  0  0  0  0
    0.0000    0.0000    0.0000 C   0  0  0  0  0  0  0  0  0  0  0  0
    0.0000    0.0000    0.0000 C   0  0  0  0  0  0  0  0  0  0  0  0
    0.0000    0.0000    0.0000 C   0  0  0  0  0  0  0  0  0  0  0  0
    0.0000    0.0000    0.0000 C   0  0  0  0  0  0  0  0  0  0  0  0
    0.0000    0.0000    0.0000 C   0  0  0  0  0  0  0  0  0  0  0  0
    0.0000    0.0000    0.0000 C   0  0  0  0  0  0  0  0  0  0  0  0
    0.0000    0.0000    0.0000 C   0  0  0  0  0  0  0  0  0  0  0  0
    0.0000    0.0000    0.0000 C   0  0  0  0  0  0  0  0  0  0  0  0
    0.0000    0.0000    0.0000 N   0  0  0  0  0  0  0  0  0  0  0  0
    0.0000    0.0000    0.0000 C   0  0  0  0  0  0  0  0  0  0  0  0
    0.0000    0.0000    0.0000 C   0  0  0  0  0  0  0  0  0  0  0  0
    0.0000    0.0000    0.0000 C   0  0  0  0  0  0  0  0  0  0  0  0
    0.0000    0.0000    0.0000 C   0  0  0  0  0  0  0  0  0  0  0  0
    0.0000    0.0000    0.0000 C   0  0  0  0  0  0  0  0  0  0  0  0
    0.0000    0.0000    0.0000 C   0  0  0  0  0  0  0  0  0  0  0  0
    0.0000    0.0000    0.0000 C   0  0  0  0  0  0  0  0  0  0  0  0
    0.0000    0.0000    0.0000 C   0  0  0  0  0  0  0  0  0  0  0  0
    0.0000    0.0000    0.0000 C   0  0  0  0  0  0  0  0  0  0  0  0
    0.0000    0.0000    0.0000 C   0  0  0  0  0  0  0  0  0  0  0  0
    0.0000    0.0000    0.0000 C   0  0  0  0  0  0  0  0  0  0  0  0
    0.0000    0.0000    0.0000 C   0  0  0  0  0  0  0  0  0  0  0  0
    0.0000    0.0000    0.0000 C   0  0  0  0  0  0  0  0  0  0  0  0
    0.0000    0.0000    0.0000 C   0  0  0  0  0  0  0  0  0  0  0  0
  1  2  2  0
  2  3  1  0
  3  4  1  0
  4  5  1  0
  5  6  1  0
  6  7  1  0
  7  8  1  0
  8  9  2  0
  9 10  1  0
 10 11  2  0
 11 12  1  0
 12 13  2  0
  5 14  1  0
 14 15  1  0
 15 16  1  0
 16 17  1  0
 17 18  1  0
 18 19  1  0
 17 20  1  0
 20 21  1  0
 21 22  1  0
 22 23  1  0
 23 24  1  0
 24 25  1  0
 25 26  1  0
 26 27  2  0
 27 28  1  0
 28 29  2  0
 29 30  1  0
 30 31  2  0
 14  2  1  0
 13  8  1  0
 19 14  1  0
 25 20  1  0
 31 26  1  0
M  END
>  <pIC50>  (292) 
5.5

>  <ChEMBL_ID>  (292) 
CHEMBL373053

>  <document_journal>  (292) 
Bioorg. Med. Chem. Lett.

>  <bao_endpoint>  (292) 
BAO_0000190

>  <potential_duplicate>  (292) 
False

>  <uo_units>  (292) 
UO_0000065

>  <canonical_smiles>  (292) 
O=C1NCN(CCc2ccccc2)C13CCN(CC3)[C@H]4CCCC[C@H]4c5ccccc5

>  <parent_molecule_chembl_id>  (292) 
CHEMBL373053

>  <assay_type>  (292) 
B

>  <src_id>  (292) 
1

>  <ligand_efficiency>  (292) 
{u'le': u'0.24', u'bei': u'13.16', u'sei': u'15.44', u'lle': u'1.01'}

>  <standard_flag>  (292) 
True

>  <molecule_chembl_id>  (292) 
CHEMBL373053

>  <target_organism>  (292) 
Homo sapiens

>  <standard_units>  (292) 
nM

>  <record_id>  (292) 
417116

>  <document_chembl_id>  (292) 
CHEMBL1148567

>  <bao_format>  (292) 
BAO_0000219

>  <data_validity_description>  (292) 
None

>  <activity_id>  (292) 
1666970

>  <standard_type>  (292) 
IC50

>  <target_chembl_id>  (292) 
CHEMBL233

>  <data_validity_comment>  (292) 
None

>  <published_value>  (292) 
3.2

>  <document_year>  (292) 
2006

>  <target_pref_name>  (292) 
Mu opioid receptor

>  <assay_chembl_id>  (292) 
CHEMBL864595

>  <standard_relation>  (292) 
=

>  <assay_description>  (292) 
Displacement of [3H]naloxone from human mu opioid receptor expressed in BHK cells

>  <published_relation>  (292) 
=

>  <standard_value>  (292) 
3200

>  <qudt_units>  (292) 
http://www.openphacts.org/units/Nanomolar

>  <target_tax_id>  (292) 
9606

>  <bao_label>  (292) 
cell-based format

>  <published_units>  (292) 
uM

>  <pchembl_value>  (292) 
5.5

>  <published_type>  (292) 
IC50

>  <activity_comment>  (292) 
None

$$$$

     RDKit          

 28 31  0  0  0  0  0  0  0  0999 V2000
    0.0000    0.0000    0.0000 C   0  0  0  0  0  0  0  0  0  0  0  0
    0.0000    0.0000    0.0000 C   0  0  0  0  0  0  0  0  0  0  0  0
    0.0000    0.0000    0.0000 C   0  0  0  0  0  0  0  0  0  0  0  0
    0.0000    0.0000    0.0000 C   0  0  0  0  0  0  0  0  0  0  0  0
    0.0000    0.0000    0.0000 C   0  0  0  0  0  0  0  0  0  0  0  0
    0.0000    0.0000    0.0000 N   0  0  0  0  0  0  0  0  0  0  0  0
    0.0000    0.0000    0.0000 C   0  0  0  0  0  0  0  0  0  0  0  0
    0.0000    0.0000    0.0000 N   0  0  0  0  0  0  0  0  0  0  0  0
    0.0000    0.0000    0.0000 C   0  0  0  0  0  0  0  0  0  0  0  0
    0.0000    0.0000    0.0000 O   0  0  0  0  0  0  0  0  0  0  0  0
    0.0000    0.0000    0.0000 C   0  0  0  0  0  0  0  0  0  0  0  0
    0.0000    0.0000    0.0000 C   0  0  0  0  0  0  0  0  0  0  0  0
    0.0000    0.0000    0.0000 C   0  0  0  0  0  0  0  0  0  0  0  0
    0.0000    0.0000    0.0000 N   0  0  0  0  0  0  0  0  0  0  0  0
    0.0000    0.0000    0.0000 C   0  0  0  0  0  0  0  0  0  0  0  0
    0.0000    0.0000    0.0000 C   0  0  0  0  0  0  0  0  0  0  0  0
    0.0000    0.0000    0.0000 C   0  0  0  0  0  0  0  0  0  0  0  0
    0.0000    0.0000    0.0000 C   0  0  0  0  0  0  0  0  0  0  0  0
    0.0000    0.0000    0.0000 C   0  0  0  0  0  0  0  0  0  0  0  0
    0.0000    0.0000    0.0000 C   0  0  0  0  0  0  0  0  0  0  0  0
    0.0000    0.0000    0.0000 C   0  0  0  0  0  0  0  0  0  0  0  0
    0.0000    0.0000    0.0000 C   0  0  0  0  0  0  0  0  0  0  0  0
    0.0000    0.0000    0.0000 C   0  0  0  0  0  0  0  0  0  0  0  0
    0.0000    0.0000    0.0000 C   0  0  0  0  0  0  0  0  0  0  0  0
    0.0000    0.0000    0.0000 C   0  0  0  0  0  0  0  0  0  0  0  0
    0.0000    0.0000    0.0000 C   0  0  0  0  0  0  0  0  0  0  0  0
    0.0000    0.0000    0.0000 C   0  0  0  0  0  0  0  0  0  0  0  0
    0.0000    0.0000    0.0000 C   0  0  0  0  0  0  0  0  0  0  0  0
  1  2  1  0
  2  3  1  0
  3  4  1  0
  4  5  1  0
  5  6  1  0
  6  7  1  0
  7  8  1  0
  8  9  1  0
  9 10  2  0
  9 11  1  0
 11 12  1  0
 12 13  1  0
 13 14  1  0
 14 15  1  0
 15 16  1  0
 14 17  1  0
 17 18  1  0
 18 19  1  0
 19 20  1  0
 20 21  1  0
 21 22  1  0
 22 23  1  0
 23 24  2  0
 24 25  1  0
 25 26  2  0
 26 27  1  0
 27 28  2  0
 11  6  1  0
 16 11  1  0
 22 17  1  0
 28 23  1  0
M  END
>  <pIC50>  (293) 
5.66

>  <ChEMBL_ID>  (293) 
CHEMBL200728

>  <document_journal>  (293) 
Bioorg. Med. Chem. Lett.

>  <bao_endpoint>  (293) 
BAO_0000190

>  <potential_duplicate>  (293) 
False

>  <uo_units>  (293) 
UO_0000065

>  <canonical_smiles>  (293) 
CCCCCN1CNC(=O)C12CCN(CC2)[C@H]3CCCC[C@H]3c4ccccc4

>  <parent_molecule_chembl_id>  (293) 
CHEMBL200728

>  <assay_type>  (293) 
B

>  <src_id>  (293) 
1

>  <ligand_efficiency>  (293) 
{u'le': u'0.28', u'bei': u'14.75', u'sei': u'15.9', u'lle': u'1.3'}

>  <standard_flag>  (293) 
True

>  <molecule_chembl_id>  (293) 
CHEMBL200728

>  <target_organism>  (293) 
Homo sapiens

>  <standard_units>  (293) 
nM

>  <record_id>  (293) 
417107

>  <document_chembl_id>  (293) 
CHEMBL1148567

>  <bao_format>  (293) 
BAO_0000219

>  <data_validity_description>  (293) 
None

>  <activity_id>  (293) 
1666972

>  <standard_type>  (293) 
IC50

>  <target_chembl_id>  (293) 
CHEMBL233

>  <data_validity_comment>  (293) 
None

>  <published_value>  (293) 
2.2

>  <document_year>  (293) 
2006

>  <target_pref_name>  (293) 
Mu opioid receptor

>  <assay_chembl_id>  (293) 
CHEMBL864595

>  <standard_relation>  (293) 
=

>  <assay_description>  (293) 
Displacement of [3H]naloxone from human mu opioid receptor expressed in BHK cells

>  <published_relation>  (293) 
=

>  <standard_value>  (293) 
2200

>  <qudt_units>  (293) 
http://www.openphacts.org/units/Nanomolar

>  <target_tax_id>  (293) 
9606

>  <bao_label>  (293) 
cell-based format

>  <published_units>  (293) 
uM

>  <pchembl_value>  (293) 
5.66

>  <published_type>  (293) 
IC50

>  <activity_comment>  (293) 
None

$$$$

     RDKit          

 30 34  0  0  0  0  0  0  0  0999 V2000
    0.0000    0.0000    0.0000 Cl  0  0  0  0  0  0  0  0  0  0  0  0
    0.0000    0.0000    0.0000 C   0  0  0  0  0  0  0  0  0  0  0  0
    0.0000    0.0000    0.0000 C   0  0  0  0  0  0  0  0  0  0  0  0
    0.0000    0.0000    0.0000 C   0  0  0  0  0  0  0  0  0  0  0  0
    0.0000    0.0000    0.0000 C   0  0  0  0  0  0  0  0  0  0  0  0
    0.0000    0.0000    0.0000 C   0  0  0  0  0  0  0  0  0  0  0  0
    0.0000    0.0000    0.0000 C   0  0  0  0  0  0  0  0  0  0  0  0
    0.0000    0.0000    0.0000 N   0  0  0  0  0  0  0  0  0  0  0  0
    0.0000    0.0000    0.0000 C   0  0  0  0  0  0  0  0  0  0  0  0
    0.0000    0.0000    0.0000 N   0  0  0  0  0  0  0  0  0  0  0  0
    0.0000    0.0000    0.0000 C   0  0  0  0  0  0  0  0  0  0  0  0
    0.0000    0.0000    0.0000 O   0  0  0  0  0  0  0  0  0  0  0  0
    0.0000    0.0000    0.0000 C   0  0  0  0  0  0  0  0  0  0  0  0
    0.0000    0.0000    0.0000 C   0  0  0  0  0  0  0  0  0  0  0  0
    0.0000    0.0000    0.0000 C   0  0  0  0  0  0  0  0  0  0  0  0
    0.0000    0.0000    0.0000 N   0  0  0  0  0  0  0  0  0  0  0  0
    0.0000    0.0000    0.0000 C   0  0  0  0  0  0  0  0  0  0  0  0
    0.0000    0.0000    0.0000 C   0  0  0  0  0  0  0  0  0  0  0  0
    0.0000    0.0000    0.0000 C   0  0  0  0  0  0  0  0  0  0  0  0
    0.0000    0.0000    0.0000 C   0  0  0  0  0  0  0  0  0  0  0  0
    0.0000    0.0000    0.0000 C   0  0  0  0  0  0  0  0  0  0  0  0
    0.0000    0.0000    0.0000 C   0  0  0  0  0  0  0  0  0  0  0  0
    0.0000    0.0000    0.0000 C   0  0  0  0  0  0  0  0  0  0  0  0
    0.0000    0.0000    0.0000 C   0  0  0  0  0  0  0  0  0  0  0  0
    0.0000    0.0000    0.0000 C   0  0  0  0  0  0  0  0  0  0  0  0
    0.0000    0.0000    0.0000 C   0  0  0  0  0  0  0  0  0  0  0  0
    0.0000    0.0000    0.0000 C   0  0  0  0  0  0  0  0  0  0  0  0
    0.0000    0.0000    0.0000 C   0  0  0  0  0  0  0  0  0  0  0  0
    0.0000    0.0000    0.0000 C   0  0  0  0  0  0  0  0  0  0  0  0
    0.0000    0.0000    0.0000 C   0  0  0  0  0  0  0  0  0  0  0  0
  1  2  1  0
  2  3  2  0
  3  4  1  0
  4  5  2  0
  5  6  1  0
  6  7  2  0
  5  8  1  0
  8  9  1  0
  9 10  1  0
 10 11  1  0
 11 12  2  0
 11 13  1  0
 13 14  1  0
 14 15  1  0
 15 16  1  0
 16 17  1  0
 17 18  1  0
 16 19  1  0
 19 20  1  0
 20 21  1  0
 21 22  1  0
 22 23  1  0
 23 24  1  0
 24 25  1  0
 25 26  2  0
 26 27  1  0
 27 28  2  0
 28 29  1  0
 29 30  2  0
  7  2  1  0
 13  8  1  0
 18 13  1  0
 24 19  1  0
 30 25  1  0
M  END
>  <pIC50>  (294) 
6.64

>  <ChEMBL_ID>  (294) 
CHEMBL425929

>  <document_journal>  (294) 
Bioorg. Med. Chem. Lett.

>  <bao_endpoint>  (294) 
BAO_0000190

>  <potential_duplicate>  (294) 
False

>  <uo_units>  (294) 
UO_0000065

>  <canonical_smiles>  (294) 
Clc1ccc(cc1)N2CNC(=O)C23CCN(CC3)[C@H]4CCCC[C@H]4c5ccccc5

>  <parent_molecule_chembl_id>  (294) 
CHEMBL425929

>  <assay_type>  (294) 
B

>  <src_id>  (294) 
1

>  <ligand_efficiency>  (294) 
{u'le': u'0.3', u'bei': u'15.66', u'sei': u'18.66', u'lle': u'1.73'}

>  <standard_flag>  (294) 
True

>  <molecule_chembl_id>  (294) 
CHEMBL425929

>  <target_organism>  (294) 
Homo sapiens

>  <standard_units>  (294) 
nM

>  <record_id>  (294) 
417100

>  <document_chembl_id>  (294) 
CHEMBL1148567

>  <bao_format>  (294) 
BAO_0000219

>  <data_validity_description>  (294) 
None

>  <activity_id>  (294) 
1666973

>  <standard_type>  (294) 
IC50

>  <target_chembl_id>  (294) 
CHEMBL233

>  <data_validity_comment>  (294) 
None

>  <published_value>  (294) 
0.23

>  <document_year>  (294) 
2006

>  <target_pref_name>  (294) 
Mu opioid receptor

>  <assay_chembl_id>  (294) 
CHEMBL864595

>  <standard_relation>  (294) 
=

>  <assay_description>  (294) 
Displacement of [3H]naloxone from human mu opioid receptor expressed in BHK cells

>  <published_relation>  (294) 
=

>  <standard_value>  (294) 
230

>  <qudt_units>  (294) 
http://www.openphacts.org/units/Nanomolar

>  <target_tax_id>  (294) 
9606

>  <bao_label>  (294) 
cell-based format

>  <published_units>  (294) 
uM

>  <pchembl_value>  (294) 
6.64

>  <published_type>  (294) 
IC50

>  <activity_comment>  (294) 
None

$$$$

     RDKit          

 29 33  0  0  0  0  0  0  0  0999 V2000
    0.0000    0.0000    0.0000 O   0  0  0  0  0  0  0  0  0  0  0  0
    0.0000    0.0000    0.0000 C   0  0  0  0  0  0  0  0  0  0  0  0
    0.0000    0.0000    0.0000 N   0  0  0  0  0  0  0  0  0  0  0  0
    0.0000    0.0000    0.0000 C   0  0  0  0  0  0  0  0  0  0  0  0
    0.0000    0.0000    0.0000 N   0  0  0  0  0  0  0  0  0  0  0  0
    0.0000    0.0000    0.0000 C   0  0  0  0  0  0  0  0  0  0  0  0
    0.0000    0.0000    0.0000 C   0  0  0  0  0  0  0  0  0  0  0  0
    0.0000    0.0000    0.0000 C   0  0  0  0  0  0  0  0  0  0  0  0
    0.0000    0.0000    0.0000 C   0  0  0  0  0  0  0  0  0  0  0  0
    0.0000    0.0000    0.0000 C   0  0  0  0  0  0  0  0  0  0  0  0
    0.0000    0.0000    0.0000 C   0  0  0  0  0  0  0  0  0  0  0  0
    0.0000    0.0000    0.0000 C   0  0  0  0  0  0  0  0  0  0  0  0
    0.0000    0.0000    0.0000 C   0  0  0  0  0  0  0  0  0  0  0  0
    0.0000    0.0000    0.0000 C   0  0  0  0  0  0  0  0  0  0  0  0
    0.0000    0.0000    0.0000 N   0  0  0  0  0  0  0  0  0  0  0  0
    0.0000    0.0000    0.0000 C   0  0  0  0  0  0  0  0  0  0  0  0
    0.0000    0.0000    0.0000 C   0  0  0  0  0  0  0  0  0  0  0  0
    0.0000    0.0000    0.0000 C   0  0  0  0  0  0  0  0  0  0  0  0
    0.0000    0.0000    0.0000 C   0  0  0  0  0  0  0  0  0  0  0  0
    0.0000    0.0000    0.0000 C   0  0  0  0  0  0  0  0  0  0  0  0
    0.0000    0.0000    0.0000 C   0  0  0  0  0  0  0  0  0  0  0  0
    0.0000    0.0000    0.0000 C   0  0  0  0  0  0  0  0  0  0  0  0
    0.0000    0.0000    0.0000 C   0  0  0  0  0  0  0  0  0  0  0  0
    0.0000    0.0000    0.0000 C   0  0  0  0  0  0  0  0  0  0  0  0
    0.0000    0.0000    0.0000 C   0  0  0  0  0  0  0  0  0  0  0  0
    0.0000    0.0000    0.0000 C   0  0  0  0  0  0  0  0  0  0  0  0
    0.0000    0.0000    0.0000 C   0  0  0  0  0  0  0  0  0  0  0  0
    0.0000    0.0000    0.0000 C   0  0  0  0  0  0  0  0  0  0  0  0
    0.0000    0.0000    0.0000 C   0  0  0  0  0  0  0  0  0  0  0  0
  1  2  2  0
  2  3  1  0
  3  4  1  0
  4  5  1  0
  5  6  1  0
  6  7  2  0
  7  8  1  0
  8  9  2  0
  9 10  1  0
 10 11  2  0
  5 12  1  0
 12 13  1  0
 13 14  1  0
 14 15  1  0
 15 16  1  0
 16 17  1  0
 15 18  1  0
 18 19  1  0
 19 20  1  0
 20 21  1  0
 21 22  1  0
 22 23  1  0
 23 24  1  0
 24 25  2  0
 25 26  1  0
 26 27  2  0
 27 28  1  0
 28 29  2  0
 12  2  1  0
 11  6  1  0
 17 12  1  0
 23 18  1  0
 29 24  1  0
M  END
>  <pIC50>  (295) 
7.39

>  <ChEMBL_ID>  (295) 
CHEMBL383539

>  <document_journal>  (295) 
Bioorg. Med. Chem. Lett.

>  <bao_endpoint>  (295) 
BAO_0000190

>  <potential_duplicate>  (295) 
False

>  <uo_units>  (295) 
UO_0000065

>  <canonical_smiles>  (295) 
O=C1NCN(c2ccccc2)C13CCN(CC3)[C@@H]4CCCC[C@@H]4c5ccccc5

>  <parent_molecule_chembl_id>  (295) 
CHEMBL383539

>  <assay_type>  (295) 
B

>  <src_id>  (295) 
1

>  <ligand_efficiency>  (295) 
{u'le': u'0.35', u'bei': u'18.96', u'sei': u'20.76', u'lle': u'3.15'}

>  <standard_flag>  (295) 
True

>  <molecule_chembl_id>  (295) 
CHEMBL383539

>  <target_organism>  (295) 
Homo sapiens

>  <standard_units>  (295) 
nM

>  <record_id>  (295) 
417082

>  <document_chembl_id>  (295) 
CHEMBL1148567

>  <bao_format>  (295) 
BAO_0000219

>  <data_validity_description>  (295) 
None

>  <activity_id>  (295) 
1666974

>  <standard_type>  (295) 
IC50

>  <target_chembl_id>  (295) 
CHEMBL233

>  <data_validity_comment>  (295) 
None

>  <published_value>  (295) 
0.041

>  <document_year>  (295) 
2006

>  <target_pref_name>  (295) 
Mu opioid receptor

>  <assay_chembl_id>  (295) 
CHEMBL864595

>  <standard_relation>  (295) 
=

>  <assay_description>  (295) 
Displacement of [3H]naloxone from human mu opioid receptor expressed in BHK cells

>  <published_relation>  (295) 
=

>  <standard_value>  (295) 
41

>  <qudt_units>  (295) 
http://www.openphacts.org/units/Nanomolar

>  <target_tax_id>  (295) 
9606

>  <bao_label>  (295) 
cell-based format

>  <published_units>  (295) 
uM

>  <pchembl_value>  (295) 
7.39

>  <published_type>  (295) 
IC50

>  <activity_comment>  (295) 
None

$$$$

     RDKit          

 58 67  0  0  0  0  0  0  0  0999 V2000
    0.0000    0.0000    0.0000 O   0  0  0  0  0  0  0  0  0  0  0  0
    0.0000    0.0000    0.0000 C   0  0  0  0  0  0  0  0  0  0  0  0
    0.0000    0.0000    0.0000 C   0  0  0  0  0  0  0  0  0  0  0  0
    0.0000    0.0000    0.0000 C   0  0  0  0  0  0  0  0  0  0  0  0
    0.0000    0.0000    0.0000 C   0  0  0  0  0  0  0  0  0  0  0  0
    0.0000    0.0000    0.0000 C   0  0  0  0  0  0  0  0  0  0  0  0
    0.0000    0.0000    0.0000 C   0  0  0  0  0  0  0  0  0  0  0  0
    0.0000    0.0000    0.0000 C   0  0  0  0  0  0  0  0  0  0  0  0
    0.0000    0.0000    0.0000 C   0  0  0  0  0  0  0  0  0  0  0  0
    0.0000    0.0000    0.0000 C   0  0  0  0  0  0  0  0  0  0  0  0
    0.0000    0.0000    0.0000 C   0  0  0  0  0  0  0  0  0  0  0  0
    0.0000    0.0000    0.0000 O   0  0  0  0  0  0  0  0  0  0  0  0
    0.0000    0.0000    0.0000 O   0  0  0  0  0  0  0  0  0  0  0  0
    0.0000    0.0000    0.0000 C   0  0  0  0  0  0  0  0  0  0  0  0
    0.0000    0.0000    0.0000 C   0  0  0  0  0  0  0  0  0  0  0  0
    0.0000    0.0000    0.0000 C   0  0  0  0  0  0  0  0  0  0  0  0
    0.0000    0.0000    0.0000 C   0  0  0  0  0  0  0  0  0  0  0  0
    0.0000    0.0000    0.0000 C   0  0  0  0  0  0  0  0  0  0  0  0
    0.0000    0.0000    0.0000 C   0  0  0  0  0  0  0  0  0  0  0  0
    0.0000    0.0000    0.0000 C   0  0  0  0  0  0  0  0  0  0  0  0
    0.0000    0.0000    0.0000 C   0  0  0  0  0  0  0  0  0  0  0  0
    0.0000    0.0000    0.0000 C   0  0  0  0  0  0  0  0  0  0  0  0
    0.0000    0.0000    0.0000 C   0  0  0  0  0  0  0  0  0  0  0  0
    0.0000    0.0000    0.0000 C   0  0  0  0  0  0  0  0  0  0  0  0
    0.0000    0.0000    0.0000 C   0  0  0  0  0  0  0  0  0  0  0  0
    0.0000    0.0000    0.0000 C   0  0  0  0  0  0  0  0  0  0  0  0
    0.0000    0.0000    0.0000 C   0  0  0  0  0  0  0  0  0  0  0  0
    0.0000    0.0000    0.0000 N   0  0  0  0  0  0  0  0  0  0  0  0
    0.0000    0.0000    0.0000 C   0  0  0  0  0  0  0  0  0  0  0  0
    0.0000    0.0000    0.0000 C   0  0  0  0  0  0  0  0  0  0  0  0
    0.0000    0.0000    0.0000 C   0  0  0  0  0  0  0  0  0  0  0  0
    0.0000    0.0000    0.0000 C   0  0  0  0  0  0  0  0  0  0  0  0
    0.0000    0.0000    0.0000 C   0  0  0  0  0  0  0  0  0  0  0  0
    0.0000    0.0000    0.0000 C   0  0  0  0  0  0  0  0  0  0  0  0
    0.0000    0.0000    0.0000 C   0  0  0  0  0  0  0  0  0  0  0  0
    0.0000    0.0000    0.0000 N   0  0  0  0  0  0  0  0  0  0  0  0
    0.0000    0.0000    0.0000 C   0  0  0  0  0  0  0  0  0  0  0  0
    0.0000    0.0000    0.0000 C   0  0  0  0  0  0  0  0  0  0  0  0
    0.0000    0.0000    0.0000 C   0  0  0  0  0  0  0  0  0  0  0  0
    0.0000    0.0000    0.0000 C   0  0  0  0  0  0  0  0  0  0  0  0
    0.0000    0.0000    0.0000 C   0  0  0  0  0  0  0  0  0  0  0  0
    0.0000    0.0000    0.0000 C   0  0  0  0  0  0  0  0  0  0  0  0
    0.0000    0.0000    0.0000 C   0  0  0  0  0  0  0  0  0  0  0  0
    0.0000    0.0000    0.0000 C   0  0  0  0  0  0  0  0  0  0  0  0
    0.0000    0.0000    0.0000 C   0  0  0  0  0  0  0  0  0  0  0  0
    0.0000    0.0000    0.0000 C   0  0  0  0  0  0  0  0  0  0  0  0
    0.0000    0.0000    0.0000 C   0  0  0  0  0  0  0  0  0  0  0  0
    0.0000    0.0000    0.0000 C   0  0  0  0  0  0  0  0  0  0  0  0
    0.0000    0.0000    0.0000 C   0  0  0  0  0  0  0  0  0  0  0  0
    0.0000    0.0000    0.0000 C   0  0  0  0  0  0  0  0  0  0  0  0
    0.0000    0.0000    0.0000 N   0  0  0  0  0  0  0  0  0  0  0  0
    0.0000    0.0000    0.0000 C   0  0  0  0  0  0  0  0  0  0  0  0
    0.0000    0.0000    0.0000 C   0  0  0  0  0  0  0  0  0  0  0  0
    0.0000    0.0000    0.0000 C   0  0  0  0  0  0  0  0  0  0  0  0
    0.0000    0.0000    0.0000 C   0  0  0  0  0  0  0  0  0  0  0  0
    0.0000    0.0000    0.0000 C   0  0  0  0  0  0  0  0  0  0  0  0
    0.0000    0.0000    0.0000 C   0  0  0  0  0  0  0  0  0  0  0  0
    0.0000    0.0000    0.0000 C   0  0  0  0  0  0  0  0  0  0  0  0
  1  2  2  0
  2  3  1  0
  3  4  1  0
  4  5  1  0
  5  6  1  0
  6  7  1  0
  7  8  1  0
  8  9  1  0
  9 10  1  0
 10 11  1  0
 11 12  2  0
 11 13  1  0
 13 14  1  0
 14 15  2  0
 15 16  1  0
 16 17  2  0
 17 18  1  0
 18 19  1  0
 19 20  1  0
 20 21  1  0
 21 22  1  0
 22 23  1  0
 23 24  1  0
 24 25  1  0
 25 26  1  0
 26 27  1  0
 27 28  1  0
 28 29  1  0
 29 30  1  0
 30 31  1  0
 31 32  1  0
 32 33  1  0
 25 34  1  0
 34 35  2  0
  2 36  1  0
 36 37  1  0
 37 38  2  0
 38 39  1  0
 39 40  2  0
 40 41  1  0
 41 42  1  0
 42 43  1  0
 43 44  1  0
 44 45  1  0
 45 46  1  0
 46 47  1  0
 47 48  1  0
 48 49  1  0
 49 50  1  0
 50 51  1  0
 51 52  1  0
 52 53  1  0
 53 54  1  0
 54 55  1  0
 55 56  1  0
 48 57  1  0
 57 58  2  0
 35 14  1  0
 34 17  1  0
 28 19  1  0
 25 20  1  0
 33 30  1  0
 58 37  1  0
 57 40  1  0
 51 42  1  0
 48 43  1  0
 56 53  1  0
M  END
>  <pIC50>  (296) 
6.82

>  <ChEMBL_ID>  (296) 
CHEMBL200881

>  <document_journal>  (296) 
J. Med. Chem.

>  <bao_endpoint>  (296) 
BAO_0000190

>  <potential_duplicate>  (296) 
False

>  <uo_units>  (296) 
UO_0000065

>  <canonical_smiles>  (296) 
O=C(CCCCCCCCC(=O)Oc1ccc2C[C@@H]3C4CCCC[C@]4(CCN3CC5CCC5)c2c1)Nc6ccc7C[C@@H]8C9CCCC[C@]9(CCN8CC%10CCC%10)c7c6

>  <parent_molecule_chembl_id>  (296) 
CHEMBL200881

>  <assay_type>  (296) 
F

>  <src_id>  (296) 
1

>  <ligand_efficiency>  (296) 
None

>  <standard_flag>  (296) 
True

>  <molecule_chembl_id>  (296) 
CHEMBL200881

>  <target_organism>  (296) 
Homo sapiens

>  <standard_units>  (296) 
nM

>  <record_id>  (296) 
418569

>  <document_chembl_id>  (296) 
CHEMBL1148605

>  <bao_format>  (296) 
BAO_0000219

>  <data_validity_description>  (296) 
None

>  <activity_id>  (296) 
1668777

>  <standard_type>  (296) 
IC50

>  <target_chembl_id>  (296) 
CHEMBL233

>  <data_validity_comment>  (296) 
None

>  <published_value>  (296) 
150

>  <document_year>  (296) 
2006

>  <target_pref_name>  (296) 
Mu opioid receptor

>  <assay_chembl_id>  (296) 
CHEMBL863310

>  <standard_relation>  (296) 
=

>  <assay_description>  (296) 
Activity at human mu opioid receptor expressed in CHO cells by [35S]GTP-gamma-S binding assay

>  <published_relation>  (296) 
=

>  <standard_value>  (296) 
150

>  <qudt_units>  (296) 
http://www.openphacts.org/units/Nanomolar

>  <target_tax_id>  (296) 
9606

>  <bao_label>  (296) 
cell-based format

>  <published_units>  (296) 
nM

>  <pchembl_value>  (296) 
6.82

>  <published_type>  (296) 
IC50

>  <activity_comment>  (296) 
None

$$$$

     RDKit          

 57 66  0  0  0  0  0  0  0  0999 V2000
    0.0000    0.0000    0.0000 O   0  0  0  0  0  0  0  0  0  0  0  0
    0.0000    0.0000    0.0000 C   0  0  0  0  0  0  0  0  0  0  0  0
    0.0000    0.0000    0.0000 C   0  0  0  0  0  0  0  0  0  0  0  0
    0.0000    0.0000    0.0000 C   0  0  0  0  0  0  0  0  0  0  0  0
    0.0000    0.0000    0.0000 C   0  0  0  0  0  0  0  0  0  0  0  0
    0.0000    0.0000    0.0000 C   0  0  0  0  0  0  0  0  0  0  0  0
    0.0000    0.0000    0.0000 C   0  0  0  0  0  0  0  0  0  0  0  0
    0.0000    0.0000    0.0000 C   0  0  0  0  0  0  0  0  0  0  0  0
    0.0000    0.0000    0.0000 C   0  0  0  0  0  0  0  0  0  0  0  0
    0.0000    0.0000    0.0000 C   0  0  0  0  0  0  0  0  0  0  0  0
    0.0000    0.0000    0.0000 C   0  0  0  0  0  0  0  0  0  0  0  0
    0.0000    0.0000    0.0000 O   0  0  0  0  0  0  0  0  0  0  0  0
    0.0000    0.0000    0.0000 O   0  0  0  0  0  0  0  0  0  0  0  0
    0.0000    0.0000    0.0000 C   0  0  0  0  0  0  0  0  0  0  0  0
    0.0000    0.0000    0.0000 C   0  0  0  0  0  0  0  0  0  0  0  0
    0.0000    0.0000    0.0000 C   0  0  0  0  0  0  0  0  0  0  0  0
    0.0000    0.0000    0.0000 C   0  0  0  0  0  0  0  0  0  0  0  0
    0.0000    0.0000    0.0000 C   0  0  0  0  0  0  0  0  0  0  0  0
    0.0000    0.0000    0.0000 C   0  0  0  0  0  0  0  0  0  0  0  0
    0.0000    0.0000    0.0000 C   0  0  0  0  0  0  0  0  0  0  0  0
    0.0000    0.0000    0.0000 C   0  0  0  0  0  0  0  0  0  0  0  0
    0.0000    0.0000    0.0000 C   0  0  0  0  0  0  0  0  0  0  0  0
    0.0000    0.0000    0.0000 C   0  0  0  0  0  0  0  0  0  0  0  0
    0.0000    0.0000    0.0000 C   0  0  0  0  0  0  0  0  0  0  0  0
    0.0000    0.0000    0.0000 C   0  0  0  0  0  0  0  0  0  0  0  0
    0.0000    0.0000    0.0000 C   0  0  0  0  0  0  0  0  0  0  0  0
    0.0000    0.0000    0.0000 C   0  0  0  0  0  0  0  0  0  0  0  0
    0.0000    0.0000    0.0000 N   0  0  0  0  0  0  0  0  0  0  0  0
    0.0000    0.0000    0.0000 C   0  0  0  0  0  0  0  0  0  0  0  0
    0.0000    0.0000    0.0000 C   0  0  0  0  0  0  0  0  0  0  0  0
    0.0000    0.0000    0.0000 C   0  0  0  0  0  0  0  0  0  0  0  0
    0.0000    0.0000    0.0000 C   0  0  0  0  0  0  0  0  0  0  0  0
    0.0000    0.0000    0.0000 C   0  0  0  0  0  0  0  0  0  0  0  0
    0.0000    0.0000    0.0000 C   0  0  0  0  0  0  0  0  0  0  0  0
    0.0000    0.0000    0.0000 C   0  0  0  0  0  0  0  0  0  0  0  0
    0.0000    0.0000    0.0000 O   0  0  0  0  0  0  0  0  0  0  0  0
    0.0000    0.0000    0.0000 C   0  0  0  0  0  0  0  0  0  0  0  0
    0.0000    0.0000    0.0000 C   0  0  0  0  0  0  0  0  0  0  0  0
    0.0000    0.0000    0.0000 C   0  0  0  0  0  0  0  0  0  0  0  0
    0.0000    0.0000    0.0000 C   0  0  0  0  0  0  0  0  0  0  0  0
    0.0000    0.0000    0.0000 C   0  0  0  0  0  0  0  0  0  0  0  0
    0.0000    0.0000    0.0000 C   0  0  0  0  0  0  0  0  0  0  0  0
    0.0000    0.0000    0.0000 C   0  0  0  0  0  0  0  0  0  0  0  0
    0.0000    0.0000    0.0000 C   0  0  0  0  0  0  0  0  0  0  0  0
    0.0000    0.0000    0.0000 C   0  0  0  0  0  0  0  0  0  0  0  0
    0.0000    0.0000    0.0000 C   0  0  0  0  0  0  0  0  0  0  0  0
    0.0000    0.0000    0.0000 C   0  0  0  0  0  0  0  0  0  0  0  0
    0.0000    0.0000    0.0000 C   0  0  0  0  0  0  0  0  0  0  0  0
    0.0000    0.0000    0.0000 C   0  0  0  0  0  0  0  0  0  0  0  0
    0.0000    0.0000    0.0000 C   0  0  0  0  0  0  0  0  0  0  0  0
    0.0000    0.0000    0.0000 N   0  0  0  0  0  0  0  0  0  0  0  0
    0.0000    0.0000    0.0000 C   0  0  0  0  0  0  0  0  0  0  0  0
    0.0000    0.0000    0.0000 C   0  0  0  0  0  0  0  0  0  0  0  0
    0.0000    0.0000    0.0000 C   0  0  0  0  0  0  0  0  0  0  0  0
    0.0000    0.0000    0.0000 C   0  0  0  0  0  0  0  0  0  0  0  0
    0.0000    0.0000    0.0000 C   0  0  0  0  0  0  0  0  0  0  0  0
    0.0000    0.0000    0.0000 C   0  0  0  0  0  0  0  0  0  0  0  0
  1  2  2  0
  2  3  1  0
  3  4  1  0
  4  5  1  0
  5  6  1  0
  6  7  1  0
  7  8  1  0
  8  9  1  0
  9 10  1  0
 10 11  1  0
 11 12  2  0
 11 13  1  0
 13 14  1  0
 14 15  2  0
 15 16  1  0
 16 17  2  0
 17 18  1  0
 18 19  1  0
 19 20  1  0
 20 21  1  0
 21 22  1  0
 22 23  1  0
 23 24  1  0
 24 25  1  0
 25 26  1  0
 26 27  1  0
 27 28  1  0
 28 29  1  0
 29 30  1  0
 30 31  1  0
 31 32  1  0
 32 33  1  0
 25 34  1  0
 34 35  2  0
  2 36  1  0
 36 37  1  0
 37 38  2  0
 38 39  1  0
 39 40  2  0
 40 41  1  0
 41 42  1  0
 42 43  1  0
 43 44  1  0
 44 45  1  0
 45 46  1  0
 46 47  1  0
 47 48  1  0
 48 49  1  0
 49 50  1  0
 50 51  1  0
 51 52  1  0
 52 53  1  0
 53 54  1  0
 54 55  1  0
 48 56  1  0
 56 57  2  0
 35 14  1  0
 34 17  1  0
 28 19  1  0
 25 20  1  0
 33 30  1  0
 57 37  1  0
 56 40  1  0
 51 42  1  0
 48 43  1  0
 55 53  1  0
M  END
>  <pIC50>  (297) 
7.02

>  <ChEMBL_ID>  (297) 
CHEMBL201271

>  <document_journal>  (297) 
J. Med. Chem.

>  <bao_endpoint>  (297) 
BAO_0000190

>  <potential_duplicate>  (297) 
False

>  <uo_units>  (297) 
UO_0000065

>  <canonical_smiles>  (297) 
O=C(CCCCCCCCC(=O)Oc1ccc2C[C@@H]3C4CCCC[C@]4(CCN3CC5CCC5)c2c1)Oc6ccc7C[C@@H]8C9CCCC[C@]9(CCN8CC%10CC%10)c7c6

>  <parent_molecule_chembl_id>  (297) 
CHEMBL201271

>  <assay_type>  (297) 
F

>  <src_id>  (297) 
1

>  <ligand_efficiency>  (297) 
None

>  <standard_flag>  (297) 
True

>  <molecule_chembl_id>  (297) 
CHEMBL201271

>  <target_organism>  (297) 
Homo sapiens

>  <standard_units>  (297) 
nM

>  <record_id>  (297) 
418566

>  <document_chembl_id>  (297) 
CHEMBL1148605

>  <bao_format>  (297) 
BAO_0000219

>  <data_validity_description>  (297) 
None

>  <activity_id>  (297) 
1668789

>  <standard_type>  (297) 
IC50

>  <target_chembl_id>  (297) 
CHEMBL233

>  <data_validity_comment>  (297) 
None

>  <published_value>  (297) 
96

>  <document_year>  (297) 
2006

>  <target_pref_name>  (297) 
Mu opioid receptor

>  <assay_chembl_id>  (297) 
CHEMBL863310

>  <standard_relation>  (297) 
=

>  <assay_description>  (297) 
Activity at human mu opioid receptor expressed in CHO cells by [35S]GTP-gamma-S binding assay

>  <published_relation>  (297) 
=

>  <standard_value>  (297) 
96

>  <qudt_units>  (297) 
http://www.openphacts.org/units/Nanomolar

>  <target_tax_id>  (297) 
9606

>  <bao_label>  (297) 
cell-based format

>  <published_units>  (297) 
nM

>  <pchembl_value>  (297) 
7.02

>  <published_type>  (297) 
IC50

>  <activity_comment>  (297) 
None

$$$$

     RDKit          

 58 67  0  0  0  0  0  0  0  0999 V2000
    0.0000    0.0000    0.0000 O   0  0  0  0  0  0  0  0  0  0  0  0
    0.0000    0.0000    0.0000 C   0  0  0  0  0  0  0  0  0  0  0  0
    0.0000    0.0000    0.0000 C   0  0  0  0  0  0  0  0  0  0  0  0
    0.0000    0.0000    0.0000 C   0  0  0  0  0  0  0  0  0  0  0  0
    0.0000    0.0000    0.0000 C   0  0  0  0  0  0  0  0  0  0  0  0
    0.0000    0.0000    0.0000 C   0  0  0  0  0  0  0  0  0  0  0  0
    0.0000    0.0000    0.0000 C   0  0  0  0  0  0  0  0  0  0  0  0
    0.0000    0.0000    0.0000 C   0  0  0  0  0  0  0  0  0  0  0  0
    0.0000    0.0000    0.0000 C   0  0  0  0  0  0  0  0  0  0  0  0
    0.0000    0.0000    0.0000 C   0  0  0  0  0  0  0  0  0  0  0  0
    0.0000    0.0000    0.0000 C   0  0  0  0  0  0  0  0  0  0  0  0
    0.0000    0.0000    0.0000 O   0  0  0  0  0  0  0  0  0  0  0  0
    0.0000    0.0000    0.0000 O   0  0  0  0  0  0  0  0  0  0  0  0
    0.0000    0.0000    0.0000 C   0  0  0  0  0  0  0  0  0  0  0  0
    0.0000    0.0000    0.0000 C   0  0  0  0  0  0  0  0  0  0  0  0
    0.0000    0.0000    0.0000 C   0  0  0  0  0  0  0  0  0  0  0  0
    0.0000    0.0000    0.0000 C   0  0  0  0  0  0  0  0  0  0  0  0
    0.0000    0.0000    0.0000 C   0  0  0  0  0  0  0  0  0  0  0  0
    0.0000    0.0000    0.0000 C   0  0  0  0  0  0  0  0  0  0  0  0
    0.0000    0.0000    0.0000 C   0  0  0  0  0  0  0  0  0  0  0  0
    0.0000    0.0000    0.0000 C   0  0  0  0  0  0  0  0  0  0  0  0
    0.0000    0.0000    0.0000 C   0  0  0  0  0  0  0  0  0  0  0  0
    0.0000    0.0000    0.0000 C   0  0  0  0  0  0  0  0  0  0  0  0
    0.0000    0.0000    0.0000 C   0  0  0  0  0  0  0  0  0  0  0  0
    0.0000    0.0000    0.0000 C   0  0  0  0  0  0  0  0  0  0  0  0
    0.0000    0.0000    0.0000 C   0  0  0  0  0  0  0  0  0  0  0  0
    0.0000    0.0000    0.0000 C   0  0  0  0  0  0  0  0  0  0  0  0
    0.0000    0.0000    0.0000 N   0  0  0  0  0  0  0  0  0  0  0  0
    0.0000    0.0000    0.0000 C   0  0  0  0  0  0  0  0  0  0  0  0
    0.0000    0.0000    0.0000 C   0  0  0  0  0  0  0  0  0  0  0  0
    0.0000    0.0000    0.0000 C   0  0  0  0  0  0  0  0  0  0  0  0
    0.0000    0.0000    0.0000 C   0  0  0  0  0  0  0  0  0  0  0  0
    0.0000    0.0000    0.0000 C   0  0  0  0  0  0  0  0  0  0  0  0
    0.0000    0.0000    0.0000 C   0  0  0  0  0  0  0  0  0  0  0  0
    0.0000    0.0000    0.0000 C   0  0  0  0  0  0  0  0  0  0  0  0
    0.0000    0.0000    0.0000 O   0  0  0  0  0  0  0  0  0  0  0  0
    0.0000    0.0000    0.0000 C   0  0  0  0  0  0  0  0  0  0  0  0
    0.0000    0.0000    0.0000 C   0  0  0  0  0  0  0  0  0  0  0  0
    0.0000    0.0000    0.0000 C   0  0  0  0  0  0  0  0  0  0  0  0
    0.0000    0.0000    0.0000 C   0  0  0  0  0  0  0  0  0  0  0  0
    0.0000    0.0000    0.0000 C   0  0  0  0  0  0  0  0  0  0  0  0
    0.0000    0.0000    0.0000 C   0  0  0  0  0  0  0  0  0  0  0  0
    0.0000    0.0000    0.0000 C   0  0  0  0  0  0  0  0  0  0  0  0
    0.0000    0.0000    0.0000 C   0  0  0  0  0  0  0  0  0  0  0  0
    0.0000    0.0000    0.0000 C   0  0  0  0  0  0  0  0  0  0  0  0
    0.0000    0.0000    0.0000 C   0  0  0  0  0  0  0  0  0  0  0  0
    0.0000    0.0000    0.0000 C   0  0  0  0  0  0  0  0  0  0  0  0
    0.0000    0.0000    0.0000 C   0  0  0  0  0  0  0  0  0  0  0  0
    0.0000    0.0000    0.0000 C   0  0  0  0  0  0  0  0  0  0  0  0
    0.0000    0.0000    0.0000 C   0  0  0  0  0  0  0  0  0  0  0  0
    0.0000    0.0000    0.0000 N   0  0  0  0  0  0  0  0  0  0  0  0
    0.0000    0.0000    0.0000 C   0  0  0  0  0  0  0  0  0  0  0  0
    0.0000    0.0000    0.0000 C   0  0  0  0  0  0  0  0  0  0  0  0
    0.0000    0.0000    0.0000 C   0  0  0  0  0  0  0  0  0  0  0  0
    0.0000    0.0000    0.0000 C   0  0  0  0  0  0  0  0  0  0  0  0
    0.0000    0.0000    0.0000 C   0  0  0  0  0  0  0  0  0  0  0  0
    0.0000    0.0000    0.0000 C   0  0  0  0  0  0  0  0  0  0  0  0
    0.0000    0.0000    0.0000 C   0  0  0  0  0  0  0  0  0  0  0  0
  1  2  2  0
  2  3  1  0
  3  4  1  0
  4  5  1  0
  5  6  1  0
  6  7  1  0
  7  8  1  0
  8  9  1  0
  9 10  1  0
 10 11  1  0
 11 12  2  0
 11 13  1  0
 13 14  1  0
 14 15  2  0
 15 16  1  0
 16 17  2  0
 17 18  1  0
 18 19  1  0
 19 20  1  0
 20 21  1  0
 21 22  1  0
 22 23  1  0
 23 24  1  0
 24 25  1  0
 25 26  1  0
 26 27  1  0
 27 28  1  0
 28 29  1  0
 29 30  1  0
 30 31  1  0
 31 32  1  0
 32 33  1  0
 25 34  1  0
 34 35  2  0
  2 36  1  0
 36 37  1  0
 37 38  2  0
 38 39  1  0
 39 40  2  0
 40 41  1  0
 41 42  1  0
 42 43  1  0
 43 44  1  0
 44 45  1  0
 45 46  1  0
 46 47  1  0
 47 48  1  0
 48 49  1  0
 49 50  1  0
 50 51  1  0
 51 52  1  0
 52 53  1  0
 53 54  1  0
 54 55  1  0
 55 56  1  0
 48 57  1  0
 57 58  2  0
 35 14  1  0
 34 17  1  0
 28 19  1  0
 25 20  1  0
 33 30  1  0
 58 37  1  0
 57 40  1  0
 51 42  1  0
 48 43  1  0
 56 53  1  0
M  END
>  <pIC50>  (298) 
6.34

>  <ChEMBL_ID>  (298) 
CHEMBL193039

>  <document_journal>  (298) 
J. Med. Chem.

>  <bao_endpoint>  (298) 
BAO_0000190

>  <potential_duplicate>  (298) 
False

>  <uo_units>  (298) 
UO_0000065

>  <canonical_smiles>  (298) 
O=C(CCCCCCCCC(=O)Oc1ccc2C[C@H]3C4CCCC[C@@]4(CCN3CC5CCC5)c2c1)Oc6ccc7C[C@@H]8C9CCCC[C@]9(CCN8CC%10CCC%10)c7c6

>  <parent_molecule_chembl_id>  (298) 
CHEMBL193039

>  <assay_type>  (298) 
F

>  <src_id>  (298) 
1

>  <ligand_efficiency>  (298) 
None

>  <standard_flag>  (298) 
True

>  <molecule_chembl_id>  (298) 
CHEMBL193039

>  <target_organism>  (298) 
Homo sapiens

>  <standard_units>  (298) 
nM

>  <record_id>  (298) 
418565

>  <document_chembl_id>  (298) 
CHEMBL1148605

>  <bao_format>  (298) 
BAO_0000219

>  <data_validity_description>  (298) 
None

>  <activity_id>  (298) 
1668793

>  <standard_type>  (298) 
IC50

>  <target_chembl_id>  (298) 
CHEMBL233

>  <data_validity_comment>  (298) 
None

>  <published_value>  (298) 
460

>  <document_year>  (298) 
2006

>  <target_pref_name>  (298) 
Mu opioid receptor

>  <assay_chembl_id>  (298) 
CHEMBL863310

>  <standard_relation>  (298) 
=

>  <assay_description>  (298) 
Activity at human mu opioid receptor expressed in CHO cells by [35S]GTP-gamma-S binding assay

>  <published_relation>  (298) 
=

>  <standard_value>  (298) 
460

>  <qudt_units>  (298) 
http://www.openphacts.org/units/Nanomolar

>  <target_tax_id>  (298) 
9606

>  <bao_label>  (298) 
cell-based format

>  <published_units>  (298) 
nM

>  <pchembl_value>  (298) 
6.34

>  <published_type>  (298) 
IC50

>  <activity_comment>  (298) 
None

$$$$

     RDKit          

 60 69  0  0  0  0  0  0  0  0999 V2000
    0.0000    0.0000    0.0000 O   0  0  0  0  0  0  0  0  0  0  0  0
    0.0000    0.0000    0.0000 C   0  0  0  0  0  0  0  0  0  0  0  0
    0.0000    0.0000    0.0000 C   0  0  0  0  0  0  0  0  0  0  0  0
    0.0000    0.0000    0.0000 C   0  0  0  0  0  0  0  0  0  0  0  0
    0.0000    0.0000    0.0000 C   0  0  0  0  0  0  0  0  0  0  0  0
    0.0000    0.0000    0.0000 C   0  0  0  0  0  0  0  0  0  0  0  0
    0.0000    0.0000    0.0000 C   0  0  0  0  0  0  0  0  0  0  0  0
    0.0000    0.0000    0.0000 C   0  0  0  0  0  0  0  0  0  0  0  0
    0.0000    0.0000    0.0000 C   0  0  0  0  0  0  0  0  0  0  0  0
    0.0000    0.0000    0.0000 C   0  0  0  0  0  0  0  0  0  0  0  0
    0.0000    0.0000    0.0000 C   0  0  0  0  0  0  0  0  0  0  0  0
    0.0000    0.0000    0.0000 O   0  0  0  0  0  0  0  0  0  0  0  0
    0.0000    0.0000    0.0000 O   0  0  0  0  0  0  0  0  0  0  0  0
    0.0000    0.0000    0.0000 C   0  0  0  0  0  0  0  0  0  0  0  0
    0.0000    0.0000    0.0000 C   0  0  0  0  0  0  0  0  0  0  0  0
    0.0000    0.0000    0.0000 C   0  0  0  0  0  0  0  0  0  0  0  0
    0.0000    0.0000    0.0000 C   0  0  0  0  0  0  0  0  0  0  0  0
    0.0000    0.0000    0.0000 C   0  0  0  0  0  0  0  0  0  0  0  0
    0.0000    0.0000    0.0000 C   0  0  0  0  0  0  0  0  0  0  0  0
    0.0000    0.0000    0.0000 C   0  0  0  0  0  0  0  0  0  0  0  0
    0.0000    0.0000    0.0000 C   0  0  0  0  0  0  0  0  0  0  0  0
    0.0000    0.0000    0.0000 C   0  0  0  0  0  0  0  0  0  0  0  0
    0.0000    0.0000    0.0000 C   0  0  0  0  0  0  0  0  0  0  0  0
    0.0000    0.0000    0.0000 C   0  0  0  0  0  0  0  0  0  0  0  0
    0.0000    0.0000    0.0000 C   0  0  0  0  0  0  0  0  0  0  0  0
    0.0000    0.0000    0.0000 C   0  0  0  0  0  0  0  0  0  0  0  0
    0.0000    0.0000    0.0000 C   0  0  0  0  0  0  0  0  0  0  0  0
    0.0000    0.0000    0.0000 N   0  0  0  0  0  0  0  0  0  0  0  0
    0.0000    0.0000    0.0000 C   0  0  0  0  0  0  0  0  0  0  0  0
    0.0000    0.0000    0.0000 C   0  0  0  0  0  0  0  0  0  0  0  0
    0.0000    0.0000    0.0000 C   0  0  0  0  0  0  0  0  0  0  0  0
    0.0000    0.0000    0.0000 C   0  0  0  0  0  0  0  0  0  0  0  0
    0.0000    0.0000    0.0000 C   0  0  0  0  0  0  0  0  0  0  0  0
    0.0000    0.0000    0.0000 O   0  0  0  0  0  0  0  0  0  0  0  0
    0.0000    0.0000    0.0000 C   0  0  0  0  0  0  0  0  0  0  0  0
    0.0000    0.0000    0.0000 C   0  0  0  0  0  0  0  0  0  0  0  0
    0.0000    0.0000    0.0000 O   0  0  0  0  0  0  0  0  0  0  0  0
    0.0000    0.0000    0.0000 C   0  0  0  0  0  0  0  0  0  0  0  0
    0.0000    0.0000    0.0000 C   0  0  0  0  0  0  0  0  0  0  0  0
    0.0000    0.0000    0.0000 C   0  0  0  0  0  0  0  0  0  0  0  0
    0.0000    0.0000    0.0000 C   0  0  0  0  0  0  0  0  0  0  0  0
    0.0000    0.0000    0.0000 C   0  0  0  0  0  0  0  0  0  0  0  0
    0.0000    0.0000    0.0000 C   0  0  0  0  0  0  0  0  0  0  0  0
    0.0000    0.0000    0.0000 C   0  0  0  0  0  0  0  0  0  0  0  0
    0.0000    0.0000    0.0000 C   0  0  0  0  0  0  0  0  0  0  0  0
    0.0000    0.0000    0.0000 C   0  0  0  0  0  0  0  0  0  0  0  0
    0.0000    0.0000    0.0000 C   0  0  0  0  0  0  0  0  0  0  0  0
    0.0000    0.0000    0.0000 C   0  0  0  0  0  0  0  0  0  0  0  0
    0.0000    0.0000    0.0000 C   0  0  0  0  0  0  0  0  0  0  0  0
    0.0000    0.0000    0.0000 C   0  0  0  0  0  0  0  0  0  0  0  0
    0.0000    0.0000    0.0000 C   0  0  0  0  0  0  0  0  0  0  0  0
    0.0000    0.0000    0.0000 N   0  0  0  0  0  0  0  0  0  0  0  0
    0.0000    0.0000    0.0000 C   0  0  0  0  0  0  0  0  0  0  0  0
    0.0000    0.0000    0.0000 C   0  0  0  0  0  0  0  0  0  0  0  0
    0.0000    0.0000    0.0000 C   0  0  0  0  0  0  0  0  0  0  0  0
    0.0000    0.0000    0.0000 C   0  0  0  0  0  0  0  0  0  0  0  0
    0.0000    0.0000    0.0000 C   0  0  0  0  0  0  0  0  0  0  0  0
    0.0000    0.0000    0.0000 O   0  0  0  0  0  0  0  0  0  0  0  0
    0.0000    0.0000    0.0000 C   0  0  0  0  0  0  0  0  0  0  0  0
    0.0000    0.0000    0.0000 C   0  0  0  0  0  0  0  0  0  0  0  0
  1  2  2  0
  2  3  1  0
  3  4  1  0
  4  5  1  0
  5  6  1  0
  6  7  1  0
  7  8  1  0
  8  9  1  0
  9 10  1  0
 10 11  1  0
 11 12  2  0
 11 13  1  0
 13 14  1  0
 14 15  2  0
 15 16  1  0
 16 17  2  0
 17 18  1  0
 18 19  1  0
 19 20  1  0
 20 21  1  0
 21 22  1  0
 22 23  1  0
 23 24  1  0
 24 25  1  0
 25 26  1  0
 26 27  1  0
 27 28  1  0
 28 29  1  0
 29 30  1  0
 30 31  1  0
 31 32  1  0
 32 33  1  0
 33 34  1  0
 25 35  1  0
 35 36  2  0
  2 37  1  0
 37 38  1  0
 38 39  2  0
 39 40  1  0
 40 41  2  0
 41 42  1  0
 42 43  1  0
 43 44  1  0
 44 45  1  0
 45 46  1  0
 46 47  1  0
 47 48  1  0
 48 49  1  0
 49 50  1  0
 50 51  1  0
 51 52  1  0
 52 53  1  0
 53 54  1  0
 54 55  1  0
 55 56  1  0
 56 57  1  0
 57 58  1  0
 49 59  1  0
 59 60  2  0
 36 14  1  0
 35 17  1  0
 28 19  1  0
 25 20  1  0
 34 30  1  0
 60 38  1  0
 59 41  1  0
 52 43  1  0
 49 44  1  0
 58 54  1  0
M  END
>  <pIC50>  (299) 
6.44

>  <ChEMBL_ID>  (299) 
CHEMBL369919

>  <document_journal>  (299) 
J. Med. Chem.

>  <bao_endpoint>  (299) 
BAO_0000190

>  <potential_duplicate>  (299) 
False

>  <uo_units>  (299) 
UO_0000065

>  <canonical_smiles>  (299) 
O=C(CCCCCCCCC(=O)Oc1ccc2C[C@@H]3C4CCCC[C@]4(CCN3C[C@@H]5CCCO5)c2c1)Oc6ccc7C[C@@H]8C9CCCC[C@]9(CCN8C[C@@H]%10CCCO%10)c7c6

>  <parent_molecule_chembl_id>  (299) 
CHEMBL369919

>  <assay_type>  (299) 
F

>  <src_id>  (299) 
1

>  <ligand_efficiency>  (299) 
None

>  <standard_flag>  (299) 
True

>  <molecule_chembl_id>  (299) 
CHEMBL369919

>  <target_organism>  (299) 
Homo sapiens

>  <standard_units>  (299) 
nM

>  <record_id>  (299) 
418561

>  <document_chembl_id>  (299) 
CHEMBL1148605

>  <bao_format>  (299) 
BAO_0000219

>  <data_validity_description>  (299) 
None

>  <activity_id>  (299) 
1668805

>  <standard_type>  (299) 
IC50

>  <target_chembl_id>  (299) 
CHEMBL233

>  <data_validity_comment>  (299) 
None

>  <published_value>  (299) 
360

>  <document_year>  (299) 
2006

>  <target_pref_name>  (299) 
Mu opioid receptor

>  <assay_chembl_id>  (299) 
CHEMBL863310

>  <standard_relation>  (299) 
=

>  <assay_description>  (299) 
Activity at human mu opioid receptor expressed in CHO cells by [35S]GTP-gamma-S binding assay

>  <published_relation>  (299) 
=

>  <standard_value>  (299) 
360

>  <qudt_units>  (299) 
http://www.openphacts.org/units/Nanomolar

>  <target_tax_id>  (299) 
9606

>  <bao_label>  (299) 
cell-based format

>  <published_units>  (299) 
nM

>  <pchembl_value>  (299) 
6.44

>  <published_type>  (299) 
IC50

>  <activity_comment>  (299) 
None

$$$$

     RDKit          

 23 27  0  0  0  0  0  0  0  0999 V2000
    0.0000    0.0000    0.0000 O   0  0  0  0  0  0  0  0  0  0  0  0
    0.0000    0.0000    0.0000 C   0  0  0  0  0  0  0  0  0  0  0  0
    0.0000    0.0000    0.0000 C   0  0  0  0  0  0  0  0  0  0  0  0
    0.0000    0.0000    0.0000 C   0  0  0  0  0  0  0  0  0  0  0  0
    0.0000    0.0000    0.0000 C   0  0  0  0  0  0  0  0  0  0  0  0
    0.0000    0.0000    0.0000 C   0  0  0  0  0  0  0  0  0  0  0  0
    0.0000    0.0000    0.0000 C   0  0  0  0  0  0  0  0  0  0  0  0
    0.0000    0.0000    0.0000 C   0  0  0  0  0  0  0  0  0  0  0  0
    0.0000    0.0000    0.0000 C   0  0  0  0  0  0  0  0  0  0  0  0
    0.0000    0.0000    0.0000 C   0  0  0  0  0  0  0  0  0  0  0  0
    0.0000    0.0000    0.0000 C   0  0  0  0  0  0  0  0  0  0  0  0
    0.0000    0.0000    0.0000 C   0  0  0  0  0  0  0  0  0  0  0  0
    0.0000    0.0000    0.0000 C   0  0  0  0  0  0  0  0  0  0  0  0
    0.0000    0.0000    0.0000 C   0  0  0  0  0  0  0  0  0  0  0  0
    0.0000    0.0000    0.0000 C   0  0  0  0  0  0  0  0  0  0  0  0
    0.0000    0.0000    0.0000 N   0  0  0  0  0  0  0  0  0  0  0  0
    0.0000    0.0000    0.0000 C   0  0  0  0  0  0  0  0  0  0  0  0
    0.0000    0.0000    0.0000 C   0  0  0  0  0  0  0  0  0  0  0  0
    0.0000    0.0000    0.0000 C   0  0  0  0  0  0  0  0  0  0  0  0
    0.0000    0.0000    0.0000 C   0  0  0  0  0  0  0  0  0  0  0  0
    0.0000    0.0000    0.0000 C   0  0  0  0  0  0  0  0  0  0  0  0
    0.0000    0.0000    0.0000 C   0  0  0  0  0  0  0  0  0  0  0  0
    0.0000    0.0000    0.0000 C   0  0  0  0  0  0  0  0  0  0  0  0
  1  2  1  0
  2  3  2  0
  3  4  1  0
  4  5  2  0
  5  6  1  0
  6  7  1  0
  7  8  1  0
  8  9  1  0
  9 10  1  0
 10 11  1  0
 11 12  1  0
 12 13  1  0
 13 14  1  0
 14 15  1  0
 15 16  1  0
 16 17  1  0
 17 18  1  0
 18 19  1  0
 19 20  1  0
 20 21  1  0
 13 22  1  0
 22 23  2  0
 23  2  1  0
 22  5  1  0
 16  7  1  0
 13  8  1  0
 21 18  1  0
M  END
>  <pIC50>  (300) 
7.7

>  <ChEMBL_ID>  (300) 
CHEMBL301160

>  <document_journal>  (300) 
J. Med. Chem.

>  <bao_endpoint>  (300) 
BAO_0000190

>  <potential_duplicate>  (300) 
False

>  <uo_units>  (300) 
UO_0000065

>  <canonical_smiles>  (300) 
Oc1ccc2C[C@@H]3[C@@H]4CCCC[C@]4(CCN3CC5CCC5)c2c1

>  <parent_molecule_chembl_id>  (300) 
CHEMBL301160

>  <assay_type>  (300) 
F

>  <src_id>  (300) 
1

>  <ligand_efficiency>  (300) 
None

>  <standard_flag>  (300) 
True

>  <molecule_chembl_id>  (300) 
CHEMBL301160

>  <target_organism>  (300) 
Homo sapiens

>  <standard_units>  (300) 
nM

>  <record_id>  (300) 
418552

>  <document_chembl_id>  (300) 
CHEMBL1148605

>  <bao_format>  (300) 
BAO_0000219

>  <data_validity_description>  (300) 
None

>  <activity_id>  (300) 
1668809

>  <standard_type>  (300) 
IC50

>  <target_chembl_id>  (300) 
CHEMBL233

>  <data_validity_comment>  (300) 
None

>  <published_value>  (300) 
20

>  <document_year>  (300) 
2006

>  <target_pref_name>  (300) 
Mu opioid receptor

>  <assay_chembl_id>  (300) 
CHEMBL863310

>  <standard_relation>  (300) 
=

>  <assay_description>  (300) 
Activity at human mu opioid receptor expressed in CHO cells by [35S]GTP-gamma-S binding assay

>  <published_relation>  (300) 
=

>  <standard_value>  (300) 
20

>  <qudt_units>  (300) 
http://www.openphacts.org/units/Nanomolar

>  <target_tax_id>  (300) 
9606

>  <bao_label>  (300) 
cell-based format

>  <published_units>  (300) 
nM

>  <pchembl_value>  (300) 
7.7

>  <published_type>  (300) 
IC50

>  <activity_comment>  (300) 
None

$$$$

     RDKit          

 30 34  0  0  0  0  0  0  0  0999 V2000
    0.0000    0.0000    0.0000 O   0  0  0  0  0  0  0  0  0  0  0  0
    0.0000    0.0000    0.0000 C   0  0  0  0  0  0  0  0  0  0  0  0
    0.0000    0.0000    0.0000 C   0  0  0  0  0  0  0  0  0  0  0  0
    0.0000    0.0000    0.0000 O   0  0  0  0  0  0  0  0  0  0  0  0
    0.0000    0.0000    0.0000 C   0  0  0  0  0  0  0  0  0  0  0  0
    0.0000    0.0000    0.0000 C   0  0  0  0  0  0  0  0  0  0  0  0
    0.0000    0.0000    0.0000 C   0  0  0  0  0  0  0  0  0  0  0  0
    0.0000    0.0000    0.0000 N   0  0  0  0  0  0  0  0  0  0  0  0
    0.0000    0.0000    0.0000 C   0  0  0  0  0  0  0  0  0  0  0  0
    0.0000    0.0000    0.0000 C   0  0  0  0  0  0  0  0  0  0  0  0
    0.0000    0.0000    0.0000 C   0  0  0  0  0  0  0  0  0  0  0  0
    0.0000    0.0000    0.0000 C   0  0  0  0  0  0  0  0  0  0  0  0
    0.0000    0.0000    0.0000 C   0  0  0  0  0  0  0  0  0  0  0  0
    0.0000    0.0000    0.0000 N   0  0  0  0  0  0  0  0  0  0  0  0
    0.0000    0.0000    0.0000 C   0  0  0  0  0  0  0  0  0  0  0  0
    0.0000    0.0000    0.0000 N   0  0  0  0  0  0  0  0  0  0  0  0
    0.0000    0.0000    0.0000 C   0  0  0  0  0  0  0  0  0  0  0  0
    0.0000    0.0000    0.0000 O   0  0  0  0  0  0  0  0  0  0  0  0
    0.0000    0.0000    0.0000 C   0  0  0  0  0  0  0  0  0  0  0  0
    0.0000    0.0000    0.0000 C   0  0  0  0  0  0  0  0  0  0  0  0
    0.0000    0.0000    0.0000 C   0  0  0  0  0  0  0  0  0  0  0  0
    0.0000    0.0000    0.0000 C   0  0  0  0  0  0  0  0  0  0  0  0
    0.0000    0.0000    0.0000 C   0  0  0  0  0  0  0  0  0  0  0  0
    0.0000    0.0000    0.0000 C   0  0  0  0  0  0  0  0  0  0  0  0
    0.0000    0.0000    0.0000 C   0  0  0  0  0  0  0  0  0  0  0  0
    0.0000    0.0000    0.0000 C   0  0  0  0  0  0  0  0  0  0  0  0
    0.0000    0.0000    0.0000 C   0  0  0  0  0  0  0  0  0  0  0  0
    0.0000    0.0000    0.0000 C   0  0  0  0  0  0  0  0  0  0  0  0
    0.0000    0.0000    0.0000 C   0  0  0  0  0  0  0  0  0  0  0  0
    0.0000    0.0000    0.0000 C   0  0  0  0  0  0  0  0  0  0  0  0
  1  2  1  0
  2  3  1  0
  3  4  1  0
  4  5  1  0
  5  6  1  0
  6  7  1  0
  7  8  1  0
  8  9  1  0
  9 10  1  0
 10 11  1  0
 11 12  1  0
 12 13  1  0
 11 14  1  0
 14 15  1  0
 15 16  1  0
 16 17  1  0
 17 18  2  0
 14 19  1  0
 19 20  2  0
 20 21  1  0
 21 22  2  0
 22 23  1  0
 23 24  2  0
  2 25  1  0
 25 26  2  0
 26 27  1  0
 27 28  2  0
 28 29  1  0
 29 30  2  0
  7  2  1  0
 13  8  1  0
 17 11  1  0
 24 19  1  0
 30 25  1  0
M  END
>  <pIC50>  (301) 
5.6

>  <ChEMBL_ID>  (301) 
CHEMBL200053

>  <document_journal>  (301) 
Bioorg. Med. Chem. Lett.

>  <bao_endpoint>  (301) 
BAO_0000190

>  <potential_duplicate>  (301) 
False

>  <uo_units>  (301) 
UO_0000065

>  <canonical_smiles>  (301) 
O[C@]1(COCC[C@H]1N2CCC3(CC2)N(CNC3=O)c4ccccc4)c5ccccc5

>  <parent_molecule_chembl_id>  (301) 
CHEMBL200053

>  <assay_type>  (301) 
B

>  <src_id>  (301) 
1

>  <ligand_efficiency>  (301) 
{u'le': u'0.26', u'bei': u'13.75', u'sei': u'8.61', u'lle': u'3.86'}

>  <standard_flag>  (301) 
True

>  <molecule_chembl_id>  (301) 
CHEMBL200053

>  <target_organism>  (301) 
Homo sapiens

>  <standard_units>  (301) 
nM

>  <record_id>  (301) 
412918

>  <document_chembl_id>  (301) 
CHEMBL1147765

>  <bao_format>  (301) 
BAO_0000219

>  <data_validity_description>  (301) 
None

>  <activity_id>  (301) 
1668989

>  <standard_type>  (301) 
IC50

>  <target_chembl_id>  (301) 
CHEMBL233

>  <data_validity_comment>  (301) 
None

>  <published_value>  (301) 
2.5

>  <document_year>  (301) 
2006

>  <target_pref_name>  (301) 
Mu opioid receptor

>  <assay_chembl_id>  (301) 
CHEMBL860261

>  <standard_relation>  (301) 
=

>  <assay_description>  (301) 
Displacement of [3H]naloxone from human mu opioid receptor expressed in BHK cells

>  <published_relation>  (301) 
=

>  <standard_value>  (301) 
2500

>  <qudt_units>  (301) 
http://www.openphacts.org/units/Nanomolar

>  <target_tax_id>  (301) 
9606

>  <bao_label>  (301) 
cell-based format

>  <published_units>  (301) 
uM

>  <pchembl_value>  (301) 
5.6

>  <published_type>  (301) 
IC50

>  <activity_comment>  (301) 
None

$$$$

     RDKit          

 30 34  0  0  0  0  0  0  0  0999 V2000
    0.0000    0.0000    0.0000 O   0  0  0  0  0  0  0  0  0  0  0  0
    0.0000    0.0000    0.0000 C   0  0  0  0  0  0  0  0  0  0  0  0
    0.0000    0.0000    0.0000 C   0  0  0  0  0  0  0  0  0  0  0  0
    0.0000    0.0000    0.0000 C   0  0  0  0  0  0  0  0  0  0  0  0
    0.0000    0.0000    0.0000 O   0  0  0  0  0  0  0  0  0  0  0  0
    0.0000    0.0000    0.0000 C   0  0  0  0  0  0  0  0  0  0  0  0
    0.0000    0.0000    0.0000 C   0  0  0  0  0  0  0  0  0  0  0  0
    0.0000    0.0000    0.0000 N   0  0  0  0  0  0  0  0  0  0  0  0
    0.0000    0.0000    0.0000 C   0  0  0  0  0  0  0  0  0  0  0  0
    0.0000    0.0000    0.0000 C   0  0  0  0  0  0  0  0  0  0  0  0
    0.0000    0.0000    0.0000 C   0  0  0  0  0  0  0  0  0  0  0  0
    0.0000    0.0000    0.0000 C   0  0  0  0  0  0  0  0  0  0  0  0
    0.0000    0.0000    0.0000 C   0  0  0  0  0  0  0  0  0  0  0  0
    0.0000    0.0000    0.0000 N   0  0  0  0  0  0  0  0  0  0  0  0
    0.0000    0.0000    0.0000 C   0  0  0  0  0  0  0  0  0  0  0  0
    0.0000    0.0000    0.0000 N   0  0  0  0  0  0  0  0  0  0  0  0
    0.0000    0.0000    0.0000 C   0  0  0  0  0  0  0  0  0  0  0  0
    0.0000    0.0000    0.0000 O   0  0  0  0  0  0  0  0  0  0  0  0
    0.0000    0.0000    0.0000 C   0  0  0  0  0  0  0  0  0  0  0  0
    0.0000    0.0000    0.0000 C   0  0  0  0  0  0  0  0  0  0  0  0
    0.0000    0.0000    0.0000 C   0  0  0  0  0  0  0  0  0  0  0  0
    0.0000    0.0000    0.0000 C   0  0  0  0  0  0  0  0  0  0  0  0
    0.0000    0.0000    0.0000 C   0  0  0  0  0  0  0  0  0  0  0  0
    0.0000    0.0000    0.0000 C   0  0  0  0  0  0  0  0  0  0  0  0
    0.0000    0.0000    0.0000 C   0  0  0  0  0  0  0  0  0  0  0  0
    0.0000    0.0000    0.0000 C   0  0  0  0  0  0  0  0  0  0  0  0
    0.0000    0.0000    0.0000 C   0  0  0  0  0  0  0  0  0  0  0  0
    0.0000    0.0000    0.0000 C   0  0  0  0  0  0  0  0  0  0  0  0
    0.0000    0.0000    0.0000 C   0  0  0  0  0  0  0  0  0  0  0  0
    0.0000    0.0000    0.0000 C   0  0  0  0  0  0  0  0  0  0  0  0
  1  2  1  0
  2  3  1  0
  3  4  1  0
  4  5  1  0
  5  6  1  0
  6  7  1  0
  7  8  1  0
  8  9  1  0
  9 10  1  0
 10 11  1  0
 11 12  1  0
 12 13  1  0
 11 14  1  0
 14 15  1  0
 15 16  1  0
 16 17  1  0
 17 18  2  0
 14 19  1  0
 19 20  2  0
 20 21  1  0
 21 22  2  0
 22 23  1  0
 23 24  2  0
  2 25  1  0
 25 26  2  0
 26 27  1  0
 27 28  2  0
 28 29  1  0
 29 30  2  0
  7  2  1  0
 13  8  1  0
 17 11  1  0
 24 19  1  0
 30 25  1  0
M  END
>  <pIC50>  (302) 
5.28

>  <ChEMBL_ID>  (302) 
CHEMBL201226

>  <document_journal>  (302) 
Bioorg. Med. Chem. Lett.

>  <bao_endpoint>  (302) 
BAO_0000190

>  <potential_duplicate>  (302) 
False

>  <uo_units>  (302) 
UO_0000065

>  <canonical_smiles>  (302) 
O[C@]1(CCOC[C@H]1N2CCC3(CC2)N(CNC3=O)c4ccccc4)c5ccccc5

>  <parent_molecule_chembl_id>  (302) 
CHEMBL201226

>  <assay_type>  (302) 
B

>  <src_id>  (302) 
1

>  <ligand_efficiency>  (302) 
{u'le': u'0.24', u'bei': u'12.95', u'sei': u'8.11', u'lle': u'3.54'}

>  <standard_flag>  (302) 
True

>  <molecule_chembl_id>  (302) 
CHEMBL201226

>  <target_organism>  (302) 
Homo sapiens

>  <standard_units>  (302) 
nM

>  <record_id>  (302) 
412917

>  <document_chembl_id>  (302) 
CHEMBL1147765

>  <bao_format>  (302) 
BAO_0000219

>  <data_validity_description>  (302) 
None

>  <activity_id>  (302) 
1668990

>  <standard_type>  (302) 
IC50

>  <target_chembl_id>  (302) 
CHEMBL233

>  <data_validity_comment>  (302) 
None

>  <published_value>  (302) 
5.3

>  <document_year>  (302) 
2006

>  <target_pref_name>  (302) 
Mu opioid receptor

>  <assay_chembl_id>  (302) 
CHEMBL860261

>  <standard_relation>  (302) 
=

>  <assay_description>  (302) 
Displacement of [3H]naloxone from human mu opioid receptor expressed in BHK cells

>  <published_relation>  (302) 
=

>  <standard_value>  (302) 
5300

>  <qudt_units>  (302) 
http://www.openphacts.org/units/Nanomolar

>  <target_tax_id>  (302) 
9606

>  <bao_label>  (302) 
cell-based format

>  <published_units>  (302) 
uM

>  <pchembl_value>  (302) 
5.28

>  <published_type>  (302) 
IC50

>  <activity_comment>  (302) 
None

$$$$

     RDKit          

 32 36  0  0  0  0  0  0  0  0999 V2000
    0.0000    0.0000    0.0000 O   0  0  0  0  0  0  0  0  0  0  0  0
    0.0000    0.0000    0.0000 C   0  0  0  0  0  0  0  0  0  0  0  0
    0.0000    0.0000    0.0000 N   0  0  0  0  0  0  0  0  0  0  0  0
    0.0000    0.0000    0.0000 C   0  0  0  0  0  0  0  0  0  0  0  0
    0.0000    0.0000    0.0000 C   0  0  0  0  0  0  0  0  0  0  0  0
    0.0000    0.0000    0.0000 C   0  0  0  0  0  0  0  0  0  0  0  0
    0.0000    0.0000    0.0000 N   0  0  0  0  0  0  0  0  0  0  0  0
    0.0000    0.0000    0.0000 C   0  0  0  0  0  0  0  0  0  0  0  0
    0.0000    0.0000    0.0000 C   0  0  0  0  0  0  0  0  0  0  0  0
    0.0000    0.0000    0.0000 C   0  0  0  0  0  0  0  0  0  0  0  0
    0.0000    0.0000    0.0000 C   0  0  0  0  0  0  0  0  0  0  0  0
    0.0000    0.0000    0.0000 C   0  0  0  0  0  0  0  0  0  0  0  0
    0.0000    0.0000    0.0000 O   0  0  0  0  0  0  0  0  0  0  0  0
    0.0000    0.0000    0.0000 C   0  0  0  0  0  0  0  0  0  0  0  0
    0.0000    0.0000    0.0000 C   0  0  0  0  0  0  0  0  0  0  0  0
    0.0000    0.0000    0.0000 C   0  0  0  0  0  0  0  0  0  0  0  0
    0.0000    0.0000    0.0000 C   0  0  0  0  0  0  0  0  0  0  0  0
    0.0000    0.0000    0.0000 C   0  0  0  0  0  0  0  0  0  0  0  0
    0.0000    0.0000    0.0000 C   0  0  0  0  0  0  0  0  0  0  0  0
    0.0000    0.0000    0.0000 C   0  0  0  0  0  0  0  0  0  0  0  0
    0.0000    0.0000    0.0000 C   0  0  0  0  0  0  0  0  0  0  0  0
    0.0000    0.0000    0.0000 C   0  0  0  0  0  0  0  0  0  0  0  0
    0.0000    0.0000    0.0000 C   0  0  0  0  0  0  0  0  0  0  0  0
    0.0000    0.0000    0.0000 C   0  0  0  0  0  0  0  0  0  0  0  0
    0.0000    0.0000    0.0000 N   0  0  0  0  0  0  0  0  0  0  0  0
    0.0000    0.0000    0.0000 C   0  0  0  0  0  0  0  0  0  0  0  0
    0.0000    0.0000    0.0000 C   0  0  0  0  0  0  0  0  0  0  0  0
    0.0000    0.0000    0.0000 C   0  0  0  0  0  0  0  0  0  0  0  0
    0.0000    0.0000    0.0000 C   0  0  0  0  0  0  0  0  0  0  0  0
    0.0000    0.0000    0.0000 C   0  0  0  0  0  0  0  0  0  0  0  0
    0.0000    0.0000    0.0000 C   0  0  0  0  0  0  0  0  0  0  0  0
    0.0000    0.0000    0.0000 C   0  0  0  0  0  0  0  0  0  0  0  0
  1  2  2  0
  2  3  1  0
  3  4  1  0
  4  5  1  0
  5  6  1  0
  6  7  1  0
  7  8  1  0
  8  9  1  0
  9 10  1  0
 10 11  1  0
 11 12  1  0
 10 13  1  0
 13 14  1  0
 14 15  1  0
 15 16  2  0
 16 17  1  0
 17 18  2  0
 18 19  1  0
 19 20  2  0
  2 21  1  0
 21 22  1  0
 22 23  1  0
 23 24  1  0
 24 25  1  0
 25 26  1  0
 26 27  1  0
 27 28  2  0
 28 29  1  0
 29 30  2  0
 30 31  1  0
 31 32  2  0
 12  7  1  0
 20 10  1  0
 20 15  1  0
 25 21  1  0
 32 27  1  0
M  END
>  <pIC50>  (303) 
5.17

>  <ChEMBL_ID>  (303) 
CHEMBL201945

>  <document_journal>  (303) 
J. Med. Chem.

>  <bao_endpoint>  (303) 
BAO_0000190

>  <potential_duplicate>  (303) 
False

>  <uo_units>  (303) 
UO_0000065

>  <canonical_smiles>  (303) 
O=C(NCCCN1CCC2(CC1)OCc3ccccc23)[C@H]4CCCN4Cc5ccccc5

>  <parent_molecule_chembl_id>  (303) 
CHEMBL201945

>  <assay_type>  (303) 
B

>  <src_id>  (303) 
1

>  <ligand_efficiency>  (303) 
{u'le': u'0.22', u'bei': u'11.93', u'sei': u'11.55', u'lle': u'2.37'}

>  <standard_flag>  (303) 
True

>  <molecule_chembl_id>  (303) 
CHEMBL201945

>  <target_organism>  (303) 
Homo sapiens

>  <standard_units>  (303) 
nM

>  <record_id>  (303) 
421936

>  <document_chembl_id>  (303) 
CHEMBL1149384

>  <bao_format>  (303) 
BAO_0000219

>  <data_validity_description>  (303) 
None

>  <activity_id>  (303) 
1675828

>  <standard_type>  (303) 
IC50

>  <target_chembl_id>  (303) 
CHEMBL233

>  <data_validity_comment>  (303) 
None

>  <published_value>  (303) 
6700

>  <document_year>  (303) 
2006

>  <target_pref_name>  (303) 
Mu opioid receptor

>  <assay_chembl_id>  (303) 
CHEMBL867088

>  <standard_relation>  (303) 
=

>  <assay_description>  (303) 
Displacement of [3H]diprenorphin from cloned human mu opioid receptor expressed in CHO cells

>  <published_relation>  (303) 
=

>  <standard_value>  (303) 
6700

>  <qudt_units>  (303) 
http://www.openphacts.org/units/Nanomolar

>  <target_tax_id>  (303) 
9606

>  <bao_label>  (303) 
cell-based format

>  <published_units>  (303) 
nM

>  <pchembl_value>  (303) 
5.17

>  <published_type>  (303) 
IC50

>  <activity_comment>  (303) 
None

$$$$

     RDKit          

 32 36  0  0  0  0  0  0  0  0999 V2000
    0.0000    0.0000    0.0000 O   0  0  0  0  0  0  0  0  0  0  0  0
    0.0000    0.0000    0.0000 C   0  0  0  0  0  0  0  0  0  0  0  0
    0.0000    0.0000    0.0000 N   0  0  0  0  0  0  0  0  0  0  0  0
    0.0000    0.0000    0.0000 C   0  0  0  0  0  0  0  0  0  0  0  0
    0.0000    0.0000    0.0000 C   0  0  0  0  0  0  0  0  0  0  0  0
    0.0000    0.0000    0.0000 C   0  0  0  0  0  0  0  0  0  0  0  0
    0.0000    0.0000    0.0000 N   0  0  0  0  0  0  0  0  0  0  0  0
    0.0000    0.0000    0.0000 C   0  0  0  0  0  0  0  0  0  0  0  0
    0.0000    0.0000    0.0000 C   0  0  0  0  0  0  0  0  0  0  0  0
    0.0000    0.0000    0.0000 C   0  0  0  0  0  0  0  0  0  0  0  0
    0.0000    0.0000    0.0000 C   0  0  0  0  0  0  0  0  0  0  0  0
    0.0000    0.0000    0.0000 C   0  0  0  0  0  0  0  0  0  0  0  0
    0.0000    0.0000    0.0000 C   0  0  0  0  0  0  0  0  0  0  0  0
    0.0000    0.0000    0.0000 C   0  0  0  0  0  0  0  0  0  0  0  0
    0.0000    0.0000    0.0000 C   0  0  0  0  0  0  0  0  0  0  0  0
    0.0000    0.0000    0.0000 C   0  0  0  0  0  0  0  0  0  0  0  0
    0.0000    0.0000    0.0000 C   0  0  0  0  0  0  0  0  0  0  0  0
    0.0000    0.0000    0.0000 C   0  0  0  0  0  0  0  0  0  0  0  0
    0.0000    0.0000    0.0000 C   0  0  0  0  0  0  0  0  0  0  0  0
    0.0000    0.0000    0.0000 C   0  0  0  0  0  0  0  0  0  0  0  0
    0.0000    0.0000    0.0000 C   0  0  0  0  0  0  0  0  0  0  0  0
    0.0000    0.0000    0.0000 C   0  0  0  0  0  0  0  0  0  0  0  0
    0.0000    0.0000    0.0000 C   0  0  0  0  0  0  0  0  0  0  0  0
    0.0000    0.0000    0.0000 C   0  0  0  0  0  0  0  0  0  0  0  0
    0.0000    0.0000    0.0000 N   0  0  0  0  0  0  0  0  0  0  0  0
    0.0000    0.0000    0.0000 C   0  0  0  0  0  0  0  0  0  0  0  0
    0.0000    0.0000    0.0000 C   0  0  0  0  0  0  0  0  0  0  0  0
    0.0000    0.0000    0.0000 C   0  0  0  0  0  0  0  0  0  0  0  0
    0.0000    0.0000    0.0000 C   0  0  0  0  0  0  0  0  0  0  0  0
    0.0000    0.0000    0.0000 C   0  0  0  0  0  0  0  0  0  0  0  0
    0.0000    0.0000    0.0000 C   0  0  0  0  0  0  0  0  0  0  0  0
    0.0000    0.0000    0.0000 C   0  0  0  0  0  0  0  0  0  0  0  0
  1  2  2  0
  2  3  1  0
  3  4  1  0
  4  5  1  0
  5  6  1  0
  6  7  1  0
  7  8  1  0
  8  9  1  0
  9 10  1  0
 10 11  1  0
 11 12  1  0
 10 13  1  0
 13 14  1  0
 14 15  1  0
 15 16  2  0
 16 17  1  0
 17 18  2  0
 18 19  1  0
 19 20  2  0
  2 21  1  0
 21 22  1  0
 22 23  1  0
 23 24  1  0
 24 25  1  0
 25 26  1  0
 26 27  1  0
 27 28  2  0
 28 29  1  0
 29 30  2  0
 30 31  1  0
 31 32  2  0
 12  7  1  0
 20 10  1  0
 20 15  1  0
 25 21  1  0
 32 27  1  0
M  END
>  <pIC50>  (304) 
5.37

>  <ChEMBL_ID>  (304) 
CHEMBL202225

>  <document_journal>  (304) 
J. Med. Chem.

>  <bao_endpoint>  (304) 
BAO_0000190

>  <potential_duplicate>  (304) 
False

>  <uo_units>  (304) 
UO_0000065

>  <canonical_smiles>  (304) 
O=C(NCCCN1CCC2(CC1)CCc3ccccc23)[C@H]4CCCN4Cc5ccccc5

>  <parent_molecule_chembl_id>  (304) 
CHEMBL202225

>  <assay_type>  (304) 
B

>  <src_id>  (304) 
1

>  <ligand_efficiency>  (304) 
{u'le': u'0.23', u'bei': u'12.43', u'sei': u'15.08', u'lle': u'1.09'}

>  <standard_flag>  (304) 
True

>  <molecule_chembl_id>  (304) 
CHEMBL202225

>  <target_organism>  (304) 
Homo sapiens

>  <standard_units>  (304) 
nM

>  <record_id>  (304) 
421935

>  <document_chembl_id>  (304) 
CHEMBL1149384

>  <bao_format>  (304) 
BAO_0000219

>  <data_validity_description>  (304) 
None

>  <activity_id>  (304) 
1675829

>  <standard_type>  (304) 
IC50

>  <target_chembl_id>  (304) 
CHEMBL233

>  <data_validity_comment>  (304) 
None

>  <published_value>  (304) 
4300

>  <document_year>  (304) 
2006

>  <target_pref_name>  (304) 
Mu opioid receptor

>  <assay_chembl_id>  (304) 
CHEMBL867088

>  <standard_relation>  (304) 
=

>  <assay_description>  (304) 
Displacement of [3H]diprenorphin from cloned human mu opioid receptor expressed in CHO cells

>  <published_relation>  (304) 
=

>  <standard_value>  (304) 
4300

>  <qudt_units>  (304) 
http://www.openphacts.org/units/Nanomolar

>  <target_tax_id>  (304) 
9606

>  <bao_label>  (304) 
cell-based format

>  <published_units>  (304) 
nM

>  <pchembl_value>  (304) 
5.37

>  <published_type>  (304) 
IC50

>  <activity_comment>  (304) 
None

$$$$

     RDKit          

 25 26  0  0  0  0  0  0  0  0999 V2000
    0.0000    0.0000    0.0000 C   0  0  0  0  0  0  0  0  0  0  0  0
    0.0000    0.0000    0.0000 C   0  0  0  0  0  0  0  0  0  0  0  0
    0.0000    0.0000    0.0000 C   0  0  0  0  0  0  0  0  0  0  0  0
    0.0000    0.0000    0.0000 C   0  0  0  0  0  0  0  0  0  0  0  0
    0.0000    0.0000    0.0000 C   0  0  0  0  0  0  0  0  0  0  0  0
    0.0000    0.0000    0.0000 C   0  0  0  0  0  0  0  0  0  0  0  0
    0.0000    0.0000    0.0000 C   0  0  0  0  0  0  0  0  0  0  0  0
    0.0000    0.0000    0.0000 N   0  0  0  0  0  0  0  0  0  0  0  0
    0.0000    0.0000    0.0000 C   0  0  0  0  0  0  0  0  0  0  0  0
    0.0000    0.0000    0.0000 C   0  0  0  0  0  0  0  0  0  0  0  0
    0.0000    0.0000    0.0000 C   0  0  0  0  0  0  0  0  0  0  0  0
    0.0000    0.0000    0.0000 C   0  0  0  0  0  0  0  0  0  0  0  0
    0.0000    0.0000    0.0000 C   0  0  0  0  0  0  0  0  0  0  0  0
    0.0000    0.0000    0.0000 C   0  0  0  0  0  0  0  0  0  0  0  0
    0.0000    0.0000    0.0000 C   0  0  0  0  0  0  0  0  0  0  0  0
    0.0000    0.0000    0.0000 C   0  0  0  0  0  0  0  0  0  0  0  0
    0.0000    0.0000    0.0000 C   0  0  0  0  0  0  0  0  0  0  0  0
    0.0000    0.0000    0.0000 C   0  0  0  0  0  0  0  0  0  0  0  0
    0.0000    0.0000    0.0000 C   0  0  0  0  0  0  0  0  0  0  0  0
    0.0000    0.0000    0.0000 C   0  0  0  0  0  0  0  0  0  0  0  0
    0.0000    0.0000    0.0000 C   0  0  0  0  0  0  0  0  0  0  0  0
    0.0000    0.0000    0.0000 C   0  0  0  0  0  0  0  0  0  0  0  0
    0.0000    0.0000    0.0000 C   0  0  0  0  0  0  0  0  0  0  0  0
    0.0000    0.0000    0.0000 O   0  0  0  0  0  0  0  0  0  0  0  0
    0.0000    0.0000    0.0000 C   0  0  0  0  0  0  0  0  0  0  0  0
  1  2  1  0
  2  3  1  0
  3  4  1  0
  4  5  1  0
  5  6  1  0
  6  7  1  0
  7  8  1  0
  8  9  1  0
  9 10  1  0
 10 11  1  0
 10 12  1  0
 12 13  1  0
 12 14  1  0
 14 15  1  0
 15 16  1  0
 16 17  1  0
 17 18  1  0
 12 19  1  0
 19 20  2  0
 20 21  1  0
 21 22  2  0
 22 23  1  0
 23 24  1  0
 23 25  2  0
 15  8  1  0
 25 19  1  0
M  END
>  <pIC50>  (305) 
8.05

>  <ChEMBL_ID>  (305) 
CHEMBL383094

>  <document_journal>  (305) 
Bioorg. Med. Chem. Lett.

>  <bao_endpoint>  (305) 
BAO_0000190

>  <potential_duplicate>  (305) 
False

>  <uo_units>  (305) 
UO_0000065

>  <canonical_smiles>  (305) 
CCCCCCCN1C[C@H](C)[C@@](C)(C[C@H]1CCC)c2cccc(O)c2

>  <parent_molecule_chembl_id>  (305) 
CHEMBL383094

>  <assay_type>  (305) 
F

>  <src_id>  (305) 
1

>  <ligand_efficiency>  (305) 
None

>  <standard_flag>  (305) 
True

>  <molecule_chembl_id>  (305) 
CHEMBL383094

>  <target_organism>  (305) 
Homo sapiens

>  <standard_units>  (305) 
nM

>  <record_id>  (305) 
426852

>  <document_chembl_id>  (305) 
CHEMBL1149448

>  <bao_format>  (305) 
BAO_0000019

>  <data_validity_description>  (305) 
None

>  <activity_id>  (305) 
1678605

>  <standard_type>  (305) 
IC50

>  <target_chembl_id>  (305) 
CHEMBL233

>  <data_validity_comment>  (305) 
None

>  <published_value>  (305) 
9

>  <document_year>  (305) 
2006

>  <target_pref_name>  (305) 
Mu opioid receptor

>  <assay_chembl_id>  (305) 
CHEMBL866455

>  <standard_relation>  (305) 
=

>  <assay_description>  (305) 
Inhibition of loperamide-stimulated [35S]GTP-gamma-S binding to membranes containing mu opioid receptor

>  <published_relation>  (305) 
=

>  <standard_value>  (305) 
9

>  <qudt_units>  (305) 
http://www.openphacts.org/units/Nanomolar

>  <target_tax_id>  (305) 
9606

>  <bao_label>  (305) 
assay format

>  <published_units>  (305) 
nM

>  <pchembl_value>  (305) 
8.05

>  <published_type>  (305) 
IC50

>  <activity_comment>  (305) 
None

$$$$

     RDKit          

 24 25  0  0  0  0  0  0  0  0999 V2000
    0.0000    0.0000    0.0000 C   0  0  0  0  0  0  0  0  0  0  0  0
    0.0000    0.0000    0.0000 C   0  0  0  0  0  0  0  0  0  0  0  0
    0.0000    0.0000    0.0000 C   0  0  0  0  0  0  0  0  0  0  0  0
    0.0000    0.0000    0.0000 C   0  0  0  0  0  0  0  0  0  0  0  0
    0.0000    0.0000    0.0000 C   0  0  0  0  0  0  0  0  0  0  0  0
    0.0000    0.0000    0.0000 C   0  0  0  0  0  0  0  0  0  0  0  0
    0.0000    0.0000    0.0000 N   0  0  0  0  0  0  0  0  0  0  0  0
    0.0000    0.0000    0.0000 C   0  0  0  0  0  0  0  0  0  0  0  0
    0.0000    0.0000    0.0000 C   0  0  0  0  0  0  0  0  0  0  0  0
    0.0000    0.0000    0.0000 C   0  0  0  0  0  0  0  0  0  0  0  0
    0.0000    0.0000    0.0000 C   0  0  0  0  0  0  0  0  0  0  0  0
    0.0000    0.0000    0.0000 C   0  0  0  0  0  0  0  0  0  0  0  0
    0.0000    0.0000    0.0000 C   0  0  0  0  0  0  0  0  0  0  0  0
    0.0000    0.0000    0.0000 C   0  0  0  0  0  0  0  0  0  0  0  0
    0.0000    0.0000    0.0000 C   0  0  0  0  0  0  0  0  0  0  0  0
    0.0000    0.0000    0.0000 C   0  0  0  0  0  0  0  0  0  0  0  0
    0.0000    0.0000    0.0000 C   0  0  0  0  0  0  0  0  0  0  0  0
    0.0000    0.0000    0.0000 C   0  0  0  0  0  0  0  0  0  0  0  0
    0.0000    0.0000    0.0000 C   0  0  0  0  0  0  0  0  0  0  0  0
    0.0000    0.0000    0.0000 C   0  0  0  0  0  0  0  0  0  0  0  0
    0.0000    0.0000    0.0000 C   0  0  0  0  0  0  0  0  0  0  0  0
    0.0000    0.0000    0.0000 C   0  0  0  0  0  0  0  0  0  0  0  0
    0.0000    0.0000    0.0000 O   0  0  0  0  0  0  0  0  0  0  0  0
    0.0000    0.0000    0.0000 C   0  0  0  0  0  0  0  0  0  0  0  0
  1  2  1  0
  2  3  1  0
  3  4  1  0
  4  5  1  0
  5  6  1  0
  6  7  1  0
  7  8  1  0
  8  9  1  0
  9 10  1  0
  9 11  1  0
 11 12  1  0
 11 13  1  0
 13 14  1  0
 14 15  1  0
 15 16  1  0
 16 17  1  0
 11 18  1  0
 18 19  2  0
 19 20  1  0
 20 21  2  0
 21 22  1  0
 22 23  1  0
 22 24  2  0
 14  7  1  0
 24 18  1  0
M  END
>  <pIC50>  (306) 
7.41

>  <ChEMBL_ID>  (306) 
CHEMBL202327

>  <document_journal>  (306) 
Bioorg. Med. Chem. Lett.

>  <bao_endpoint>  (306) 
BAO_0000190

>  <potential_duplicate>  (306) 
False

>  <uo_units>  (306) 
UO_0000065

>  <canonical_smiles>  (306) 
CCCCCCN1C[C@H](C)[C@@](C)(C[C@H]1CCC)c2cccc(O)c2

>  <parent_molecule_chembl_id>  (306) 
CHEMBL202327

>  <assay_type>  (306) 
F

>  <src_id>  (306) 
1

>  <ligand_efficiency>  (306) 
None

>  <standard_flag>  (306) 
True

>  <molecule_chembl_id>  (306) 
CHEMBL202327

>  <target_organism>  (306) 
Homo sapiens

>  <standard_units>  (306) 
nM

>  <record_id>  (306) 
426851

>  <document_chembl_id>  (306) 
CHEMBL1149448

>  <bao_format>  (306) 
BAO_0000019

>  <data_validity_description>  (306) 
None

>  <activity_id>  (306) 
1678606

>  <standard_type>  (306) 
IC50

>  <target_chembl_id>  (306) 
CHEMBL233

>  <data_validity_comment>  (306) 
None

>  <published_value>  (306) 
39

>  <document_year>  (306) 
2006

>  <target_pref_name>  (306) 
Mu opioid receptor

>  <assay_chembl_id>  (306) 
CHEMBL866455

>  <standard_relation>  (306) 
=

>  <assay_description>  (306) 
Inhibition of loperamide-stimulated [35S]GTP-gamma-S binding to membranes containing mu opioid receptor

>  <published_relation>  (306) 
=

>  <standard_value>  (306) 
39

>  <qudt_units>  (306) 
http://www.openphacts.org/units/Nanomolar

>  <target_tax_id>  (306) 
9606

>  <bao_label>  (306) 
assay format

>  <published_units>  (306) 
nM

>  <pchembl_value>  (306) 
7.41

>  <published_type>  (306) 
IC50

>  <activity_comment>  (306) 
None

$$$$

     RDKit          

 23 24  0  0  0  0  0  0  0  0999 V2000
    0.0000    0.0000    0.0000 C   0  0  0  0  0  0  0  0  0  0  0  0
    0.0000    0.0000    0.0000 C   0  0  0  0  0  0  0  0  0  0  0  0
    0.0000    0.0000    0.0000 C   0  0  0  0  0  0  0  0  0  0  0  0
    0.0000    0.0000    0.0000 C   0  0  0  0  0  0  0  0  0  0  0  0
    0.0000    0.0000    0.0000 C   0  0  0  0  0  0  0  0  0  0  0  0
    0.0000    0.0000    0.0000 N   0  0  0  0  0  0  0  0  0  0  0  0
    0.0000    0.0000    0.0000 C   0  0  0  0  0  0  0  0  0  0  0  0
    0.0000    0.0000    0.0000 C   0  0  0  0  0  0  0  0  0  0  0  0
    0.0000    0.0000    0.0000 C   0  0  0  0  0  0  0  0  0  0  0  0
    0.0000    0.0000    0.0000 C   0  0  0  0  0  0  0  0  0  0  0  0
    0.0000    0.0000    0.0000 C   0  0  0  0  0  0  0  0  0  0  0  0
    0.0000    0.0000    0.0000 C   0  0  0  0  0  0  0  0  0  0  0  0
    0.0000    0.0000    0.0000 C   0  0  0  0  0  0  0  0  0  0  0  0
    0.0000    0.0000    0.0000 C   0  0  0  0  0  0  0  0  0  0  0  0
    0.0000    0.0000    0.0000 C   0  0  0  0  0  0  0  0  0  0  0  0
    0.0000    0.0000    0.0000 C   0  0  0  0  0  0  0  0  0  0  0  0
    0.0000    0.0000    0.0000 C   0  0  0  0  0  0  0  0  0  0  0  0
    0.0000    0.0000    0.0000 C   0  0  0  0  0  0  0  0  0  0  0  0
    0.0000    0.0000    0.0000 C   0  0  0  0  0  0  0  0  0  0  0  0
    0.0000    0.0000    0.0000 C   0  0  0  0  0  0  0  0  0  0  0  0
    0.0000    0.0000    0.0000 C   0  0  0  0  0  0  0  0  0  0  0  0
    0.0000    0.0000    0.0000 O   0  0  0  0  0  0  0  0  0  0  0  0
    0.0000    0.0000    0.0000 C   0  0  0  0  0  0  0  0  0  0  0  0
  1  2  1  0
  2  3  1  0
  3  4  1  0
  4  5  1  0
  5  6  1  0
  6  7  1  0
  7  8  1  0
  8  9  1  0
  8 10  1  0
 10 11  1  0
 10 12  1  0
 12 13  1  0
 13 14  1  0
 14 15  1  0
 15 16  1  0
 10 17  1  0
 17 18  2  0
 18 19  1  0
 19 20  2  0
 20 21  1  0
 21 22  1  0
 21 23  2  0
 13  6  1  0
 23 17  1  0
M  END
>  <pIC50>  (307) 
6.68

>  <ChEMBL_ID>  (307) 
CHEMBL202200

>  <document_journal>  (307) 
Bioorg. Med. Chem. Lett.

>  <bao_endpoint>  (307) 
BAO_0000190

>  <potential_duplicate>  (307) 
False

>  <uo_units>  (307) 
UO_0000065

>  <canonical_smiles>  (307) 
CCCCCN1C[C@H](C)[C@@](C)(C[C@H]1CCC)c2cccc(O)c2

>  <parent_molecule_chembl_id>  (307) 
CHEMBL202200

>  <assay_type>  (307) 
F

>  <src_id>  (307) 
1

>  <ligand_efficiency>  (307) 
None

>  <standard_flag>  (307) 
True

>  <molecule_chembl_id>  (307) 
CHEMBL202200

>  <target_organism>  (307) 
Homo sapiens

>  <standard_units>  (307) 
nM

>  <record_id>  (307) 
426850

>  <document_chembl_id>  (307) 
CHEMBL1149448

>  <bao_format>  (307) 
BAO_0000019

>  <data_validity_description>  (307) 
None

>  <activity_id>  (307) 
1678607

>  <standard_type>  (307) 
IC50

>  <target_chembl_id>  (307) 
CHEMBL233

>  <data_validity_comment>  (307) 
None

>  <published_value>  (307) 
210

>  <document_year>  (307) 
2006

>  <target_pref_name>  (307) 
Mu opioid receptor

>  <assay_chembl_id>  (307) 
CHEMBL866455

>  <standard_relation>  (307) 
=

>  <assay_description>  (307) 
Inhibition of loperamide-stimulated [35S]GTP-gamma-S binding to membranes containing mu opioid receptor

>  <published_relation>  (307) 
=

>  <standard_value>  (307) 
210

>  <qudt_units>  (307) 
http://www.openphacts.org/units/Nanomolar

>  <target_tax_id>  (307) 
9606

>  <bao_label>  (307) 
assay format

>  <published_units>  (307) 
nM

>  <pchembl_value>  (307) 
6.68

>  <published_type>  (307) 
IC50

>  <activity_comment>  (307) 
None

$$$$

     RDKit          

 22 23  0  0  0  0  0  0  0  0999 V2000
    0.0000    0.0000    0.0000 C   0  0  0  0  0  0  0  0  0  0  0  0
    0.0000    0.0000    0.0000 C   0  0  0  0  0  0  0  0  0  0  0  0
    0.0000    0.0000    0.0000 C   0  0  0  0  0  0  0  0  0  0  0  0
    0.0000    0.0000    0.0000 C   0  0  0  0  0  0  0  0  0  0  0  0
    0.0000    0.0000    0.0000 N   0  0  0  0  0  0  0  0  0  0  0  0
    0.0000    0.0000    0.0000 C   0  0  0  0  0  0  0  0  0  0  0  0
    0.0000    0.0000    0.0000 C   0  0  0  0  0  0  0  0  0  0  0  0
    0.0000    0.0000    0.0000 C   0  0  0  0  0  0  0  0  0  0  0  0
    0.0000    0.0000    0.0000 C   0  0  0  0  0  0  0  0  0  0  0  0
    0.0000    0.0000    0.0000 C   0  0  0  0  0  0  0  0  0  0  0  0
    0.0000    0.0000    0.0000 C   0  0  0  0  0  0  0  0  0  0  0  0
    0.0000    0.0000    0.0000 C   0  0  0  0  0  0  0  0  0  0  0  0
    0.0000    0.0000    0.0000 C   0  0  0  0  0  0  0  0  0  0  0  0
    0.0000    0.0000    0.0000 C   0  0  0  0  0  0  0  0  0  0  0  0
    0.0000    0.0000    0.0000 C   0  0  0  0  0  0  0  0  0  0  0  0
    0.0000    0.0000    0.0000 C   0  0  0  0  0  0  0  0  0  0  0  0
    0.0000    0.0000    0.0000 C   0  0  0  0  0  0  0  0  0  0  0  0
    0.0000    0.0000    0.0000 C   0  0  0  0  0  0  0  0  0  0  0  0
    0.0000    0.0000    0.0000 C   0  0  0  0  0  0  0  0  0  0  0  0
    0.0000    0.0000    0.0000 C   0  0  0  0  0  0  0  0  0  0  0  0
    0.0000    0.0000    0.0000 O   0  0  0  0  0  0  0  0  0  0  0  0
    0.0000    0.0000    0.0000 C   0  0  0  0  0  0  0  0  0  0  0  0
  1  2  1  0
  2  3  1  0
  3  4  1  0
  4  5  1  0
  5  6  1  0
  6  7  1  0
  7  8  1  0
  7  9  1  0
  9 10  1  0
  9 11  1  0
 11 12  1  0
 12 13  1  0
 13 14  1  0
 14 15  1  0
  9 16  1  0
 16 17  2  0
 17 18  1  0
 18 19  2  0
 19 20  1  0
 20 21  1  0
 20 22  2  0
 12  5  1  0
 22 16  1  0
M  END
>  <pIC50>  (308) 
6.54

>  <ChEMBL_ID>  (308) 
CHEMBL202150

>  <document_journal>  (308) 
Bioorg. Med. Chem. Lett.

>  <bao_endpoint>  (308) 
BAO_0000190

>  <potential_duplicate>  (308) 
False

>  <uo_units>  (308) 
UO_0000065

>  <canonical_smiles>  (308) 
CCCCN1C[C@H](C)[C@@](C)(C[C@H]1CCC)c2cccc(O)c2

>  <parent_molecule_chembl_id>  (308) 
CHEMBL202150

>  <assay_type>  (308) 
F

>  <src_id>  (308) 
1

>  <ligand_efficiency>  (308) 
None

>  <standard_flag>  (308) 
True

>  <molecule_chembl_id>  (308) 
CHEMBL202150

>  <target_organism>  (308) 
Homo sapiens

>  <standard_units>  (308) 
nM

>  <record_id>  (308) 
426849

>  <document_chembl_id>  (308) 
CHEMBL1149448

>  <bao_format>  (308) 
BAO_0000019

>  <data_validity_description>  (308) 
None

>  <activity_id>  (308) 
1678608

>  <standard_type>  (308) 
IC50

>  <target_chembl_id>  (308) 
CHEMBL233

>  <data_validity_comment>  (308) 
None

>  <published_value>  (308) 
290

>  <document_year>  (308) 
2006

>  <target_pref_name>  (308) 
Mu opioid receptor

>  <assay_chembl_id>  (308) 
CHEMBL866455

>  <standard_relation>  (308) 
=

>  <assay_description>  (308) 
Inhibition of loperamide-stimulated [35S]GTP-gamma-S binding to membranes containing mu opioid receptor

>  <published_relation>  (308) 
=

>  <standard_value>  (308) 
290

>  <qudt_units>  (308) 
http://www.openphacts.org/units/Nanomolar

>  <target_tax_id>  (308) 
9606

>  <bao_label>  (308) 
assay format

>  <published_units>  (308) 
nM

>  <pchembl_value>  (308) 
6.54

>  <published_type>  (308) 
IC50

>  <activity_comment>  (308) 
None

$$$$

     RDKit          

 21 22  0  0  0  0  0  0  0  0999 V2000
    0.0000    0.0000    0.0000 C   0  0  0  0  0  0  0  0  0  0  0  0
    0.0000    0.0000    0.0000 C   0  0  0  0  0  0  0  0  0  0  0  0
    0.0000    0.0000    0.0000 C   0  0  0  0  0  0  0  0  0  0  0  0
    0.0000    0.0000    0.0000 C   0  0  0  0  0  0  0  0  0  0  0  0
    0.0000    0.0000    0.0000 C   0  0  0  0  0  0  0  0  0  0  0  0
    0.0000    0.0000    0.0000 C   0  0  0  0  0  0  0  0  0  0  0  0
    0.0000    0.0000    0.0000 C   0  0  0  0  0  0  0  0  0  0  0  0
    0.0000    0.0000    0.0000 C   0  0  0  0  0  0  0  0  0  0  0  0
    0.0000    0.0000    0.0000 C   0  0  0  0  0  0  0  0  0  0  0  0
    0.0000    0.0000    0.0000 C   0  0  0  0  0  0  0  0  0  0  0  0
    0.0000    0.0000    0.0000 N   0  0  0  0  0  0  0  0  0  0  0  0
    0.0000    0.0000    0.0000 C   0  0  0  0  0  0  0  0  0  0  0  0
    0.0000    0.0000    0.0000 C   0  0  0  0  0  0  0  0  0  0  0  0
    0.0000    0.0000    0.0000 C   0  0  0  0  0  0  0  0  0  0  0  0
    0.0000    0.0000    0.0000 C   0  0  0  0  0  0  0  0  0  0  0  0
    0.0000    0.0000    0.0000 C   0  0  0  0  0  0  0  0  0  0  0  0
    0.0000    0.0000    0.0000 C   0  0  0  0  0  0  0  0  0  0  0  0
    0.0000    0.0000    0.0000 C   0  0  0  0  0  0  0  0  0  0  0  0
    0.0000    0.0000    0.0000 C   0  0  0  0  0  0  0  0  0  0  0  0
    0.0000    0.0000    0.0000 O   0  0  0  0  0  0  0  0  0  0  0  0
    0.0000    0.0000    0.0000 C   0  0  0  0  0  0  0  0  0  0  0  0
  1  2  1  0
  2  3  1  0
  3  4  1  0
  4  5  1  0
  5  6  1  0
  6  7  1  0
  6  8  1  0
  8  9  1  0
  8 10  1  0
 10 11  1  0
 11 12  1  0
 12 13  1  0
 13 14  1  0
  6 15  1  0
 15 16  2  0
 16 17  1  0
 17 18  2  0
 18 19  1  0
 19 20  1  0
 19 21  2  0
 11  4  1  0
 21 15  1  0
M  END
>  <pIC50>  (309) 
6.5

>  <ChEMBL_ID>  (309) 
CHEMBL202139

>  <document_journal>  (309) 
Bioorg. Med. Chem. Lett.

>  <bao_endpoint>  (309) 
BAO_0000190

>  <potential_duplicate>  (309) 
False

>  <uo_units>  (309) 
UO_0000065

>  <canonical_smiles>  (309) 
CCC[C@@H]1C[C@](C)([C@@H](C)CN1CCC)c2cccc(O)c2

>  <parent_molecule_chembl_id>  (309) 
CHEMBL202139

>  <assay_type>  (309) 
F

>  <src_id>  (309) 
1

>  <ligand_efficiency>  (309) 
None

>  <standard_flag>  (309) 
True

>  <molecule_chembl_id>  (309) 
CHEMBL202139

>  <target_organism>  (309) 
Homo sapiens

>  <standard_units>  (309) 
nM

>  <record_id>  (309) 
426848

>  <document_chembl_id>  (309) 
CHEMBL1149448

>  <bao_format>  (309) 
BAO_0000019

>  <data_validity_description>  (309) 
None

>  <activity_id>  (309) 
1678609

>  <standard_type>  (309) 
IC50

>  <target_chembl_id>  (309) 
CHEMBL233

>  <data_validity_comment>  (309) 
None

>  <published_value>  (309) 
320

>  <document_year>  (309) 
2006

>  <target_pref_name>  (309) 
Mu opioid receptor

>  <assay_chembl_id>  (309) 
CHEMBL866455

>  <standard_relation>  (309) 
=

>  <assay_description>  (309) 
Inhibition of loperamide-stimulated [35S]GTP-gamma-S binding to membranes containing mu opioid receptor

>  <published_relation>  (309) 
=

>  <standard_value>  (309) 
320

>  <qudt_units>  (309) 
http://www.openphacts.org/units/Nanomolar

>  <target_tax_id>  (309) 
9606

>  <bao_label>  (309) 
assay format

>  <published_units>  (309) 
nM

>  <pchembl_value>  (309) 
6.5

>  <published_type>  (309) 
IC50

>  <activity_comment>  (309) 
None

$$$$

     RDKit          

 20 21  0  0  0  0  0  0  0  0999 V2000
    0.0000    0.0000    0.0000 C   0  0  0  0  0  0  0  0  0  0  0  0
    0.0000    0.0000    0.0000 C   0  0  0  0  0  0  0  0  0  0  0  0
    0.0000    0.0000    0.0000 C   0  0  0  0  0  0  0  0  0  0  0  0
    0.0000    0.0000    0.0000 C   0  0  0  0  0  0  0  0  0  0  0  0
    0.0000    0.0000    0.0000 C   0  0  0  0  0  0  0  0  0  0  0  0
    0.0000    0.0000    0.0000 C   0  0  0  0  0  0  0  0  0  0  0  0
    0.0000    0.0000    0.0000 C   0  0  0  0  0  0  0  0  0  0  0  0
    0.0000    0.0000    0.0000 C   0  0  0  0  0  0  0  0  0  0  0  0
    0.0000    0.0000    0.0000 C   0  0  0  0  0  0  0  0  0  0  0  0
    0.0000    0.0000    0.0000 C   0  0  0  0  0  0  0  0  0  0  0  0
    0.0000    0.0000    0.0000 N   0  0  0  0  0  0  0  0  0  0  0  0
    0.0000    0.0000    0.0000 C   0  0  0  0  0  0  0  0  0  0  0  0
    0.0000    0.0000    0.0000 C   0  0  0  0  0  0  0  0  0  0  0  0
    0.0000    0.0000    0.0000 C   0  0  0  0  0  0  0  0  0  0  0  0
    0.0000    0.0000    0.0000 C   0  0  0  0  0  0  0  0  0  0  0  0
    0.0000    0.0000    0.0000 C   0  0  0  0  0  0  0  0  0  0  0  0
    0.0000    0.0000    0.0000 C   0  0  0  0  0  0  0  0  0  0  0  0
    0.0000    0.0000    0.0000 C   0  0  0  0  0  0  0  0  0  0  0  0
    0.0000    0.0000    0.0000 O   0  0  0  0  0  0  0  0  0  0  0  0
    0.0000    0.0000    0.0000 C   0  0  0  0  0  0  0  0  0  0  0  0
  1  2  1  0
  2  3  1  0
  3  4  1  0
  4  5  1  0
  5  6  1  0
  6  7  1  0
  6  8  1  0
  8  9  1  0
  8 10  1  0
 10 11  1  0
 11 12  1  0
 12 13  1  0
  6 14  1  0
 14 15  2  0
 15 16  1  0
 16 17  2  0
 17 18  1  0
 18 19  1  0
 18 20  2  0
 11  4  1  0
 20 14  1  0
M  END
>  <pIC50>  (310) 
7.0

>  <ChEMBL_ID>  (310) 
CHEMBL202462

>  <document_journal>  (310) 
Bioorg. Med. Chem. Lett.

>  <bao_endpoint>  (310) 
BAO_0000190

>  <potential_duplicate>  (310) 
False

>  <uo_units>  (310) 
UO_0000065

>  <canonical_smiles>  (310) 
CCC[C@@H]1C[C@](C)([C@@H](C)CN1CC)c2cccc(O)c2

>  <parent_molecule_chembl_id>  (310) 
CHEMBL202462

>  <assay_type>  (310) 
F

>  <src_id>  (310) 
1

>  <ligand_efficiency>  (310) 
None

>  <standard_flag>  (310) 
True

>  <molecule_chembl_id>  (310) 
CHEMBL202462

>  <target_organism>  (310) 
Homo sapiens

>  <standard_units>  (310) 
nM

>  <record_id>  (310) 
426847

>  <document_chembl_id>  (310) 
CHEMBL1149448

>  <bao_format>  (310) 
BAO_0000019

>  <data_validity_description>  (310) 
None

>  <activity_id>  (310) 
1678610

>  <standard_type>  (310) 
IC50

>  <target_chembl_id>  (310) 
CHEMBL233

>  <data_validity_comment>  (310) 
None

>  <published_value>  (310) 
100

>  <document_year>  (310) 
2006

>  <target_pref_name>  (310) 
Mu opioid receptor

>  <assay_chembl_id>  (310) 
CHEMBL866455

>  <standard_relation>  (310) 
=

>  <assay_description>  (310) 
Inhibition of loperamide-stimulated [35S]GTP-gamma-S binding to membranes containing mu opioid receptor

>  <published_relation>  (310) 
=

>  <standard_value>  (310) 
100

>  <qudt_units>  (310) 
http://www.openphacts.org/units/Nanomolar

>  <target_tax_id>  (310) 
9606

>  <bao_label>  (310) 
assay format

>  <published_units>  (310) 
nM

>  <pchembl_value>  (310) 
7

>  <published_type>  (310) 
IC50

>  <activity_comment>  (310) 
None

$$$$

     RDKit          

 19 20  0  0  0  0  0  0  0  0999 V2000
    0.0000    0.0000    0.0000 C   0  0  0  0  0  0  0  0  0  0  0  0
    0.0000    0.0000    0.0000 C   0  0  0  0  0  0  0  0  0  0  0  0
    0.0000    0.0000    0.0000 C   0  0  0  0  0  0  0  0  0  0  0  0
    0.0000    0.0000    0.0000 C   0  0  0  0  0  0  0  0  0  0  0  0
    0.0000    0.0000    0.0000 C   0  0  0  0  0  0  0  0  0  0  0  0
    0.0000    0.0000    0.0000 C   0  0  0  0  0  0  0  0  0  0  0  0
    0.0000    0.0000    0.0000 C   0  0  0  0  0  0  0  0  0  0  0  0
    0.0000    0.0000    0.0000 C   0  0  0  0  0  0  0  0  0  0  0  0
    0.0000    0.0000    0.0000 C   0  0  0  0  0  0  0  0  0  0  0  0
    0.0000    0.0000    0.0000 C   0  0  0  0  0  0  0  0  0  0  0  0
    0.0000    0.0000    0.0000 N   0  0  0  0  0  0  0  0  0  0  0  0
    0.0000    0.0000    0.0000 C   0  0  0  0  0  0  0  0  0  0  0  0
    0.0000    0.0000    0.0000 C   0  0  0  0  0  0  0  0  0  0  0  0
    0.0000    0.0000    0.0000 C   0  0  0  0  0  0  0  0  0  0  0  0
    0.0000    0.0000    0.0000 C   0  0  0  0  0  0  0  0  0  0  0  0
    0.0000    0.0000    0.0000 C   0  0  0  0  0  0  0  0  0  0  0  0
    0.0000    0.0000    0.0000 C   0  0  0  0  0  0  0  0  0  0  0  0
    0.0000    0.0000    0.0000 O   0  0  0  0  0  0  0  0  0  0  0  0
    0.0000    0.0000    0.0000 C   0  0  0  0  0  0  0  0  0  0  0  0
  1  2  1  0
  2  3  1  0
  3  4  1  0
  4  5  1  0
  5  6  1  0
  6  7  1  0
  6  8  1  0
  8  9  1  0
  8 10  1  0
 10 11  1  0
 11 12  1  0
  6 13  1  0
 13 14  2  0
 14 15  1  0
 15 16  2  0
 16 17  1  0
 17 18  1  0
 17 19  2  0
 11  4  1  0
 19 13  1  0
M  END
>  <pIC50>  (311) 
6.77

>  <ChEMBL_ID>  (311) 
CHEMBL202461

>  <document_journal>  (311) 
Bioorg. Med. Chem. Lett.

>  <bao_endpoint>  (311) 
BAO_0000190

>  <potential_duplicate>  (311) 
False

>  <uo_units>  (311) 
UO_0000065

>  <canonical_smiles>  (311) 
CCC[C@@H]1C[C@](C)([C@@H](C)CN1C)c2cccc(O)c2

>  <parent_molecule_chembl_id>  (311) 
CHEMBL202461

>  <assay_type>  (311) 
F

>  <src_id>  (311) 
1

>  <ligand_efficiency>  (311) 
None

>  <standard_flag>  (311) 
True

>  <molecule_chembl_id>  (311) 
CHEMBL202461

>  <target_organism>  (311) 
Homo sapiens

>  <standard_units>  (311) 
nM

>  <record_id>  (311) 
426846

>  <document_chembl_id>  (311) 
CHEMBL1149448

>  <bao_format>  (311) 
BAO_0000019

>  <data_validity_description>  (311) 
None

>  <activity_id>  (311) 
1678611

>  <standard_type>  (311) 
IC50

>  <target_chembl_id>  (311) 
CHEMBL233

>  <data_validity_comment>  (311) 
None

>  <published_value>  (311) 
170

>  <document_year>  (311) 
2006

>  <target_pref_name>  (311) 
Mu opioid receptor

>  <assay_chembl_id>  (311) 
CHEMBL866455

>  <standard_relation>  (311) 
=

>  <assay_description>  (311) 
Inhibition of loperamide-stimulated [35S]GTP-gamma-S binding to membranes containing mu opioid receptor

>  <published_relation>  (311) 
=

>  <standard_value>  (311) 
170

>  <qudt_units>  (311) 
http://www.openphacts.org/units/Nanomolar

>  <target_tax_id>  (311) 
9606

>  <bao_label>  (311) 
assay format

>  <published_units>  (311) 
nM

>  <pchembl_value>  (311) 
6.77

>  <published_type>  (311) 
IC50

>  <activity_comment>  (311) 
None

$$$$

     RDKit          

 27 29  0  0  0  0  0  0  0  0999 V2000
    0.0000    0.0000    0.0000 C   0  0  0  0  0  0  0  0  0  0  0  0
    0.0000    0.0000    0.0000 C   0  0  0  0  0  0  0  0  0  0  0  0
    0.0000    0.0000    0.0000 C   0  0  0  0  0  0  0  0  0  0  0  0
    0.0000    0.0000    0.0000 C   0  0  0  0  0  0  0  0  0  0  0  0
    0.0000    0.0000    0.0000 C   0  0  0  0  0  0  0  0  0  0  0  0
    0.0000    0.0000    0.0000 C   0  0  0  0  0  0  0  0  0  0  0  0
    0.0000    0.0000    0.0000 C   0  0  0  0  0  0  0  0  0  0  0  0
    0.0000    0.0000    0.0000 C   0  0  0  0  0  0  0  0  0  0  0  0
    0.0000    0.0000    0.0000 C   0  0  0  0  0  0  0  0  0  0  0  0
    0.0000    0.0000    0.0000 C   0  0  0  0  0  0  0  0  0  0  0  0
    0.0000    0.0000    0.0000 N   0  0  0  0  0  0  0  0  0  0  0  0
    0.0000    0.0000    0.0000 C   0  0  0  0  0  0  0  0  0  0  0  0
    0.0000    0.0000    0.0000 C   0  0  0  0  0  0  0  0  0  0  0  0
    0.0000    0.0000    0.0000 C   0  0  0  0  0  0  0  0  0  0  0  0
    0.0000    0.0000    0.0000 C   0  0  0  0  0  0  0  0  0  0  0  0
    0.0000    0.0000    0.0000 C   0  0  0  0  0  0  0  0  0  0  0  0
    0.0000    0.0000    0.0000 C   0  0  0  0  0  0  0  0  0  0  0  0
    0.0000    0.0000    0.0000 C   0  0  0  0  0  0  0  0  0  0  0  0
    0.0000    0.0000    0.0000 C   0  0  0  0  0  0  0  0  0  0  0  0
    0.0000    0.0000    0.0000 C   0  0  0  0  0  0  0  0  0  0  0  0
    0.0000    0.0000    0.0000 C   0  0  0  0  0  0  0  0  0  0  0  0
    0.0000    0.0000    0.0000 C   0  0  0  0  0  0  0  0  0  0  0  0
    0.0000    0.0000    0.0000 C   0  0  0  0  0  0  0  0  0  0  0  0
    0.0000    0.0000    0.0000 C   0  0  0  0  0  0  0  0  0  0  0  0
    0.0000    0.0000    0.0000 C   0  0  0  0  0  0  0  0  0  0  0  0
    0.0000    0.0000    0.0000 O   0  0  0  0  0  0  0  0  0  0  0  0
    0.0000    0.0000    0.0000 C   0  0  0  0  0  0  0  0  0  0  0  0
  1  2  1  0
  2  3  1  0
  3  4  1  0
  4  5  1  0
  5  6  1  0
  6  7  1  0
  6  8  1  0
  8  9  1  0
  8 10  1  0
 10 11  1  0
 11 12  1  0
 12 13  1  0
 13 14  1  0
 14 15  1  0
 15 16  2  0
 16 17  1  0
 17 18  2  0
 18 19  1  0
 19 20  2  0
  6 21  1  0
 21 22  2  0
 22 23  1  0
 23 24  2  0
 24 25  1  0
 25 26  1  0
 25 27  2  0
 11  4  1  0
 20 15  1  0
 27 21  1  0
M  END
>  <pIC50>  (312) 
7.8

>  <ChEMBL_ID>  (312) 
CHEMBL201661

>  <document_journal>  (312) 
Bioorg. Med. Chem. Lett.

>  <bao_endpoint>  (312) 
BAO_0000190

>  <potential_duplicate>  (312) 
False

>  <uo_units>  (312) 
UO_0000065

>  <canonical_smiles>  (312) 
CCC[C@@H]1C[C@](C)([C@@H](C)CN1CCCc2ccccc2)c3cccc(O)c3

>  <parent_molecule_chembl_id>  (312) 
CHEMBL201661

>  <assay_type>  (312) 
F

>  <src_id>  (312) 
1

>  <ligand_efficiency>  (312) 
None

>  <standard_flag>  (312) 
True

>  <molecule_chembl_id>  (312) 
CHEMBL201661

>  <target_organism>  (312) 
Homo sapiens

>  <standard_units>  (312) 
nM

>  <record_id>  (312) 
426845

>  <document_chembl_id>  (312) 
CHEMBL1149448

>  <bao_format>  (312) 
BAO_0000019

>  <data_validity_description>  (312) 
None

>  <activity_id>  (312) 
1678612

>  <standard_type>  (312) 
IC50

>  <target_chembl_id>  (312) 
CHEMBL233

>  <data_validity_comment>  (312) 
None

>  <published_value>  (312) 
16

>  <document_year>  (312) 
2006

>  <target_pref_name>  (312) 
Mu opioid receptor

>  <assay_chembl_id>  (312) 
CHEMBL866455

>  <standard_relation>  (312) 
=

>  <assay_description>  (312) 
Inhibition of loperamide-stimulated [35S]GTP-gamma-S binding to membranes containing mu opioid receptor

>  <published_relation>  (312) 
=

>  <standard_value>  (312) 
16

>  <qudt_units>  (312) 
http://www.openphacts.org/units/Nanomolar

>  <target_tax_id>  (312) 
9606

>  <bao_label>  (312) 
assay format

>  <published_units>  (312) 
nM

>  <pchembl_value>  (312) 
7.8

>  <published_type>  (312) 
IC50

>  <activity_comment>  (312) 
None

$$$$

     RDKit          

 25 27  0  0  0  0  0  0  0  0999 V2000
    0.0000    0.0000    0.0000 C   0  0  0  0  0  0  0  0  0  0  0  0
    0.0000    0.0000    0.0000 C   0  0  0  0  0  0  0  0  0  0  0  0
    0.0000    0.0000    0.0000 C   0  0  0  0  0  0  0  0  0  0  0  0
    0.0000    0.0000    0.0000 C   0  0  0  0  0  0  0  0  0  0  0  0
    0.0000    0.0000    0.0000 C   0  0  0  0  0  0  0  0  0  0  0  0
    0.0000    0.0000    0.0000 C   0  0  0  0  0  0  0  0  0  0  0  0
    0.0000    0.0000    0.0000 C   0  0  0  0  0  0  0  0  0  0  0  0
    0.0000    0.0000    0.0000 C   0  0  0  0  0  0  0  0  0  0  0  0
    0.0000    0.0000    0.0000 C   0  0  0  0  0  0  0  0  0  0  0  0
    0.0000    0.0000    0.0000 C   0  0  0  0  0  0  0  0  0  0  0  0
    0.0000    0.0000    0.0000 N   0  0  0  0  0  0  0  0  0  0  0  0
    0.0000    0.0000    0.0000 C   0  0  0  0  0  0  0  0  0  0  0  0
    0.0000    0.0000    0.0000 C   0  0  0  0  0  0  0  0  0  0  0  0
    0.0000    0.0000    0.0000 C   0  0  0  0  0  0  0  0  0  0  0  0
    0.0000    0.0000    0.0000 C   0  0  0  0  0  0  0  0  0  0  0  0
    0.0000    0.0000    0.0000 C   0  0  0  0  0  0  0  0  0  0  0  0
    0.0000    0.0000    0.0000 C   0  0  0  0  0  0  0  0  0  0  0  0
    0.0000    0.0000    0.0000 C   0  0  0  0  0  0  0  0  0  0  0  0
    0.0000    0.0000    0.0000 C   0  0  0  0  0  0  0  0  0  0  0  0
    0.0000    0.0000    0.0000 C   0  0  0  0  0  0  0  0  0  0  0  0
    0.0000    0.0000    0.0000 C   0  0  0  0  0  0  0  0  0  0  0  0
    0.0000    0.0000    0.0000 C   0  0  0  0  0  0  0  0  0  0  0  0
    0.0000    0.0000    0.0000 C   0  0  0  0  0  0  0  0  0  0  0  0
    0.0000    0.0000    0.0000 O   0  0  0  0  0  0  0  0  0  0  0  0
    0.0000    0.0000    0.0000 C   0  0  0  0  0  0  0  0  0  0  0  0
  1  2  1  0
  2  3  1  0
  3  4  1  0
  4  5  1  0
  5  6  1  0
  6  7  1  0
  6  8  1  0
  8  9  1  0
  8 10  1  0
 10 11  1  0
 11 12  1  0
 12 13  1  0
 13 14  2  0
 14 15  1  0
 15 16  2  0
 16 17  1  0
 17 18  2  0
  6 19  1  0
 19 20  2  0
 20 21  1  0
 21 22  2  0
 22 23  1  0
 23 24  1  0
 23 25  2  0
 11  4  1  0
 18 13  1  0
 25 19  1  0
M  END
>  <pIC50>  (313) 
6.77

>  <ChEMBL_ID>  (313) 
CHEMBL201296

>  <document_journal>  (313) 
Bioorg. Med. Chem. Lett.

>  <bao_endpoint>  (313) 
BAO_0000190

>  <potential_duplicate>  (313) 
False

>  <uo_units>  (313) 
UO_0000065

>  <canonical_smiles>  (313) 
CCC[C@@H]1C[C@](C)([C@@H](C)CN1Cc2ccccc2)c3cccc(O)c3

>  <parent_molecule_chembl_id>  (313) 
CHEMBL201296

>  <assay_type>  (313) 
F

>  <src_id>  (313) 
1

>  <ligand_efficiency>  (313) 
None

>  <standard_flag>  (313) 
True

>  <molecule_chembl_id>  (313) 
CHEMBL201296

>  <target_organism>  (313) 
Homo sapiens

>  <standard_units>  (313) 
nM

>  <record_id>  (313) 
426844

>  <document_chembl_id>  (313) 
CHEMBL1149448

>  <bao_format>  (313) 
BAO_0000019

>  <data_validity_description>  (313) 
None

>  <activity_id>  (313) 
1678613

>  <standard_type>  (313) 
IC50

>  <target_chembl_id>  (313) 
CHEMBL233

>  <data_validity_comment>  (313) 
None

>  <published_value>  (313) 
170

>  <document_year>  (313) 
2006

>  <target_pref_name>  (313) 
Mu opioid receptor

>  <assay_chembl_id>  (313) 
CHEMBL866455

>  <standard_relation>  (313) 
=

>  <assay_description>  (313) 
Inhibition of loperamide-stimulated [35S]GTP-gamma-S binding to membranes containing mu opioid receptor

>  <published_relation>  (313) 
=

>  <standard_value>  (313) 
170

>  <qudt_units>  (313) 
http://www.openphacts.org/units/Nanomolar

>  <target_tax_id>  (313) 
9606

>  <bao_label>  (313) 
assay format

>  <published_units>  (313) 
nM

>  <pchembl_value>  (313) 
6.77

>  <published_type>  (313) 
IC50

>  <activity_comment>  (313) 
None

$$$$

     RDKit          

 32 35  0  0  0  0  0  0  0  0999 V2000
    0.0000    0.0000    0.0000 C   0  0  0  0  0  0  0  0  0  0  0  0
    0.0000    0.0000    0.0000 C   0  0  0  0  0  0  0  0  0  0  0  0
    0.0000    0.0000    0.0000 C   0  0  0  0  0  0  0  0  0  0  0  0
    0.0000    0.0000    0.0000 N   0  0  0  0  0  0  0  0  0  0  0  0
    0.0000    0.0000    0.0000 C   0  0  0  0  0  0  0  0  0  0  0  0
    0.0000    0.0000    0.0000 C   0  0  0  0  0  0  0  0  0  0  0  0
    0.0000    0.0000    0.0000 C   0  0  0  0  0  0  0  0  0  0  0  0
    0.0000    0.0000    0.0000 C   0  0  0  0  0  0  0  0  0  0  0  0
    0.0000    0.0000    0.0000 C   0  0  0  0  0  0  0  0  0  0  0  0
    0.0000    0.0000    0.0000 C   0  0  0  0  0  0  0  0  0  0  0  0
    0.0000    0.0000    0.0000 C   0  0  0  0  0  0  0  0  0  0  0  0
    0.0000    0.0000    0.0000 C   0  0  0  0  0  0  0  0  0  0  0  0
    0.0000    0.0000    0.0000 C   0  0  0  0  0  0  0  0  0  0  0  0
    0.0000    0.0000    0.0000 C   0  0  0  0  0  0  0  0  0  0  0  0
    0.0000    0.0000    0.0000 C   0  0  0  0  0  0  0  0  0  0  0  0
    0.0000    0.0000    0.0000 C   0  0  0  0  0  0  0  0  0  0  0  0
    0.0000    0.0000    0.0000 C   0  0  0  0  0  0  0  0  0  0  0  0
    0.0000    0.0000    0.0000 C   0  0  0  0  0  0  0  0  0  0  0  0
    0.0000    0.0000    0.0000 C   0  0  0  0  0  0  0  0  0  0  0  0
    0.0000    0.0000    0.0000 C   0  0  0  0  0  0  0  0  0  0  0  0
    0.0000    0.0000    0.0000 C   0  0  0  0  0  0  0  0  0  0  0  0
    0.0000    0.0000    0.0000 C   0  0  0  0  0  0  0  0  0  0  0  0
    0.0000    0.0000    0.0000 C   0  0  0  0  0  0  0  0  0  0  0  0
    0.0000    0.0000    0.0000 C   0  0  0  0  0  0  0  0  0  0  0  0
    0.0000    0.0000    0.0000 C   0  0  0  0  0  0  0  0  0  0  0  0
    0.0000    0.0000    0.0000 C   0  0  0  0  0  0  0  0  0  0  0  0
    0.0000    0.0000    0.0000 C   0  0  0  0  0  0  0  0  0  0  0  0
    0.0000    0.0000    0.0000 C   0  0  0  0  0  0  0  0  0  0  0  0
    0.0000    0.0000    0.0000 C   0  0  0  0  0  0  0  0  0  0  0  0
    0.0000    0.0000    0.0000 C   0  0  0  0  0  0  0  0  0  0  0  0
    0.0000    0.0000    0.0000 O   0  0  0  0  0  0  0  0  0  0  0  0
    0.0000    0.0000    0.0000 C   0  0  0  0  0  0  0  0  0  0  0  0
  1  2  1  0
  2  3  1  0
  3  4  1  0
  4  5  1  0
  5  6  1  0
  6  7  1  0
  7  8  2  0
  8  9  1  0
  9 10  2  0
 10 11  1  0
 11 12  2  0
  4 13  1  0
 13 14  1  0
 14 15  1  0
 15 16  1  0
 16 17  1  0
 17 18  2  0
 18 19  1  0
 19 20  2  0
 20 21  1  0
 21 22  2  0
 13 23  1  0
 23 24  1  0
 24 25  1  0
 24 26  1  0
 26 27  2  0
 27 28  1  0
 28 29  2  0
 29 30  1  0
 30 31  1  0
 30 32  2  0
 24  2  1  0
 12  7  1  0
 22 17  1  0
 32 26  1  0
M  END
>  <pIC50>  (314) 
6.44

>  <ChEMBL_ID>  (314) 
CHEMBL383044

>  <document_journal>  (314) 
Bioorg. Med. Chem. Lett.

>  <bao_endpoint>  (314) 
BAO_0000190

>  <potential_duplicate>  (314) 
False

>  <uo_units>  (314) 
UO_0000065

>  <canonical_smiles>  (314) 
C[C@H]1CN(CCc2ccccc2)[C@H](CCCc3ccccc3)C[C@@]1(C)c4cccc(O)c4

>  <parent_molecule_chembl_id>  (314) 
CHEMBL383044

>  <assay_type>  (314) 
F

>  <src_id>  (314) 
1

>  <ligand_efficiency>  (314) 
None

>  <standard_flag>  (314) 
True

>  <molecule_chembl_id>  (314) 
CHEMBL383044

>  <target_organism>  (314) 
Homo sapiens

>  <standard_units>  (314) 
nM

>  <record_id>  (314) 
426842

>  <document_chembl_id>  (314) 
CHEMBL1149448

>  <bao_format>  (314) 
BAO_0000019

>  <data_validity_description>  (314) 
None

>  <activity_id>  (314) 
1678615

>  <standard_type>  (314) 
IC50

>  <target_chembl_id>  (314) 
CHEMBL233

>  <data_validity_comment>  (314) 
None

>  <published_value>  (314) 
360

>  <document_year>  (314) 
2006

>  <target_pref_name>  (314) 
Mu opioid receptor

>  <assay_chembl_id>  (314) 
CHEMBL866455

>  <standard_relation>  (314) 
=

>  <assay_description>  (314) 
Inhibition of loperamide-stimulated [35S]GTP-gamma-S binding to membranes containing mu opioid receptor

>  <published_relation>  (314) 
=

>  <standard_value>  (314) 
360

>  <qudt_units>  (314) 
http://www.openphacts.org/units/Nanomolar

>  <target_tax_id>  (314) 
9606

>  <bao_label>  (314) 
assay format

>  <published_units>  (314) 
nM

>  <pchembl_value>  (314) 
6.44

>  <published_type>  (314) 
IC50

>  <activity_comment>  (314) 
None

$$$$

     RDKit          

 31 34  0  0  0  0  0  0  0  0999 V2000
    0.0000    0.0000    0.0000 C   0  0  0  0  0  0  0  0  0  0  0  0
    0.0000    0.0000    0.0000 C   0  0  0  0  0  0  0  0  0  0  0  0
    0.0000    0.0000    0.0000 C   0  0  0  0  0  0  0  0  0  0  0  0
    0.0000    0.0000    0.0000 N   0  0  0  0  0  0  0  0  0  0  0  0
    0.0000    0.0000    0.0000 C   0  0  0  0  0  0  0  0  0  0  0  0
    0.0000    0.0000    0.0000 C   0  0  0  0  0  0  0  0  0  0  0  0
    0.0000    0.0000    0.0000 C   0  0  0  0  0  0  0  0  0  0  0  0
    0.0000    0.0000    0.0000 C   0  0  0  0  0  0  0  0  0  0  0  0
    0.0000    0.0000    0.0000 C   0  0  0  0  0  0  0  0  0  0  0  0
    0.0000    0.0000    0.0000 C   0  0  0  0  0  0  0  0  0  0  0  0
    0.0000    0.0000    0.0000 C   0  0  0  0  0  0  0  0  0  0  0  0
    0.0000    0.0000    0.0000 C   0  0  0  0  0  0  0  0  0  0  0  0
    0.0000    0.0000    0.0000 C   0  0  0  0  0  0  0  0  0  0  0  0
    0.0000    0.0000    0.0000 C   0  0  0  0  0  0  0  0  0  0  0  0
    0.0000    0.0000    0.0000 C   0  0  0  0  0  0  0  0  0  0  0  0
    0.0000    0.0000    0.0000 C   0  0  0  0  0  0  0  0  0  0  0  0
    0.0000    0.0000    0.0000 C   0  0  0  0  0  0  0  0  0  0  0  0
    0.0000    0.0000    0.0000 C   0  0  0  0  0  0  0  0  0  0  0  0
    0.0000    0.0000    0.0000 C   0  0  0  0  0  0  0  0  0  0  0  0
    0.0000    0.0000    0.0000 C   0  0  0  0  0  0  0  0  0  0  0  0
    0.0000    0.0000    0.0000 C   0  0  0  0  0  0  0  0  0  0  0  0
    0.0000    0.0000    0.0000 C   0  0  0  0  0  0  0  0  0  0  0  0
    0.0000    0.0000    0.0000 C   0  0  0  0  0  0  0  0  0  0  0  0
    0.0000    0.0000    0.0000 C   0  0  0  0  0  0  0  0  0  0  0  0
    0.0000    0.0000    0.0000 C   0  0  0  0  0  0  0  0  0  0  0  0
    0.0000    0.0000    0.0000 C   0  0  0  0  0  0  0  0  0  0  0  0
    0.0000    0.0000    0.0000 C   0  0  0  0  0  0  0  0  0  0  0  0
    0.0000    0.0000    0.0000 C   0  0  0  0  0  0  0  0  0  0  0  0
    0.0000    0.0000    0.0000 C   0  0  0  0  0  0  0  0  0  0  0  0
    0.0000    0.0000    0.0000 O   0  0  0  0  0  0  0  0  0  0  0  0
    0.0000    0.0000    0.0000 C   0  0  0  0  0  0  0  0  0  0  0  0
  1  2  1  0
  2  3  1  0
  3  4  1  0
  4  5  1  0
  5  6  1  0
  6  7  1  0
  7  8  2  0
  8  9  1  0
  9 10  2  0
 10 11  1  0
 11 12  2  0
  4 13  1  0
 13 14  1  0
 14 15  1  0
 15 16  1  0
 16 17  2  0
 17 18  1  0
 18 19  2  0
 19 20  1  0
 20 21  2  0
 13 22  1  0
 22 23  1  0
 23 24  1  0
 23 25  1  0
 25 26  2  0
 26 27  1  0
 27 28  2  0
 28 29  1  0
 29 30  1  0
 29 31  2  0
 23  2  1  0
 12  7  1  0
 21 16  1  0
 31 25  1  0
M  END
>  <pIC50>  (315) 
6.68

>  <ChEMBL_ID>  (315) 
CHEMBL201434

>  <document_journal>  (315) 
Bioorg. Med. Chem. Lett.

>  <bao_endpoint>  (315) 
BAO_0000190

>  <potential_duplicate>  (315) 
False

>  <uo_units>  (315) 
UO_0000065

>  <canonical_smiles>  (315) 
C[C@H]1CN(CCc2ccccc2)[C@H](CCc3ccccc3)C[C@@]1(C)c4cccc(O)c4

>  <parent_molecule_chembl_id>  (315) 
CHEMBL201434

>  <assay_type>  (315) 
F

>  <src_id>  (315) 
1

>  <ligand_efficiency>  (315) 
None

>  <standard_flag>  (315) 
True

>  <molecule_chembl_id>  (315) 
CHEMBL201434

>  <target_organism>  (315) 
Homo sapiens

>  <standard_units>  (315) 
nM

>  <record_id>  (315) 
426841

>  <document_chembl_id>  (315) 
CHEMBL1149448

>  <bao_format>  (315) 
BAO_0000019

>  <data_validity_description>  (315) 
None

>  <activity_id>  (315) 
1678616

>  <standard_type>  (315) 
IC50

>  <target_chembl_id>  (315) 
CHEMBL233

>  <data_validity_comment>  (315) 
None

>  <published_value>  (315) 
210

>  <document_year>  (315) 
2006

>  <target_pref_name>  (315) 
Mu opioid receptor

>  <assay_chembl_id>  (315) 
CHEMBL866455

>  <standard_relation>  (315) 
=

>  <assay_description>  (315) 
Inhibition of loperamide-stimulated [35S]GTP-gamma-S binding to membranes containing mu opioid receptor

>  <published_relation>  (315) 
=

>  <standard_value>  (315) 
210

>  <qudt_units>  (315) 
http://www.openphacts.org/units/Nanomolar

>  <target_tax_id>  (315) 
9606

>  <bao_label>  (315) 
assay format

>  <published_units>  (315) 
nM

>  <pchembl_value>  (315) 
6.68

>  <published_type>  (315) 
IC50

>  <activity_comment>  (315) 
None

$$$$

     RDKit          

 30 33  0  0  0  0  0  0  0  0999 V2000
    0.0000    0.0000    0.0000 C   0  0  0  0  0  0  0  0  0  0  0  0
    0.0000    0.0000    0.0000 C   0  0  0  0  0  0  0  0  0  0  0  0
    0.0000    0.0000    0.0000 C   0  0  0  0  0  0  0  0  0  0  0  0
    0.0000    0.0000    0.0000 N   0  0  0  0  0  0  0  0  0  0  0  0
    0.0000    0.0000    0.0000 C   0  0  0  0  0  0  0  0  0  0  0  0
    0.0000    0.0000    0.0000 C   0  0  0  0  0  0  0  0  0  0  0  0
    0.0000    0.0000    0.0000 C   0  0  0  0  0  0  0  0  0  0  0  0
    0.0000    0.0000    0.0000 C   0  0  0  0  0  0  0  0  0  0  0  0
    0.0000    0.0000    0.0000 C   0  0  0  0  0  0  0  0  0  0  0  0
    0.0000    0.0000    0.0000 C   0  0  0  0  0  0  0  0  0  0  0  0
    0.0000    0.0000    0.0000 C   0  0  0  0  0  0  0  0  0  0  0  0
    0.0000    0.0000    0.0000 C   0  0  0  0  0  0  0  0  0  0  0  0
    0.0000    0.0000    0.0000 C   0  0  0  0  0  0  0  0  0  0  0  0
    0.0000    0.0000    0.0000 C   0  0  0  0  0  0  0  0  0  0  0  0
    0.0000    0.0000    0.0000 C   0  0  0  0  0  0  0  0  0  0  0  0
    0.0000    0.0000    0.0000 C   0  0  0  0  0  0  0  0  0  0  0  0
    0.0000    0.0000    0.0000 C   0  0  0  0  0  0  0  0  0  0  0  0
    0.0000    0.0000    0.0000 C   0  0  0  0  0  0  0  0  0  0  0  0
    0.0000    0.0000    0.0000 C   0  0  0  0  0  0  0  0  0  0  0  0
    0.0000    0.0000    0.0000 C   0  0  0  0  0  0  0  0  0  0  0  0
    0.0000    0.0000    0.0000 C   0  0  0  0  0  0  0  0  0  0  0  0
    0.0000    0.0000    0.0000 C   0  0  0  0  0  0  0  0  0  0  0  0
    0.0000    0.0000    0.0000 C   0  0  0  0  0  0  0  0  0  0  0  0
    0.0000    0.0000    0.0000 C   0  0  0  0  0  0  0  0  0  0  0  0
    0.0000    0.0000    0.0000 C   0  0  0  0  0  0  0  0  0  0  0  0
    0.0000    0.0000    0.0000 C   0  0  0  0  0  0  0  0  0  0  0  0
    0.0000    0.0000    0.0000 C   0  0  0  0  0  0  0  0  0  0  0  0
    0.0000    0.0000    0.0000 C   0  0  0  0  0  0  0  0  0  0  0  0
    0.0000    0.0000    0.0000 O   0  0  0  0  0  0  0  0  0  0  0  0
    0.0000    0.0000    0.0000 C   0  0  0  0  0  0  0  0  0  0  0  0
  1  2  1  0
  2  3  1  0
  3  4  1  0
  4  5  1  0
  5  6  1  0
  6  7  1  0
  7  8  2  0
  8  9  1  0
  9 10  2  0
 10 11  1  0
 11 12  2  0
  4 13  1  0
 13 14  1  0
 14 15  1  0
 15 16  2  0
 16 17  1  0
 17 18  2  0
 18 19  1  0
 19 20  2  0
 13 21  1  0
 21 22  1  0
 22 23  1  0
 22 24  1  0
 24 25  2  0
 25 26  1  0
 26 27  2  0
 27 28  1  0
 28 29  1  0
 28 30  2  0
 22  2  1  0
 12  7  1  0
 20 15  1  0
 30 24  1  0
M  END
>  <pIC50>  (316) 
6.55

>  <ChEMBL_ID>  (316) 
CHEMBL203150

>  <document_journal>  (316) 
Bioorg. Med. Chem. Lett.

>  <bao_endpoint>  (316) 
BAO_0000190

>  <potential_duplicate>  (316) 
False

>  <uo_units>  (316) 
UO_0000065

>  <canonical_smiles>  (316) 
C[C@H]1CN(CCc2ccccc2)[C@H](Cc3ccccc3)C[C@@]1(C)c4cccc(O)c4

>  <parent_molecule_chembl_id>  (316) 
CHEMBL203150

>  <assay_type>  (316) 
F

>  <src_id>  (316) 
1

>  <ligand_efficiency>  (316) 
None

>  <standard_flag>  (316) 
True

>  <molecule_chembl_id>  (316) 
CHEMBL203150

>  <target_organism>  (316) 
Homo sapiens

>  <standard_units>  (316) 
nM

>  <record_id>  (316) 
426840

>  <document_chembl_id>  (316) 
CHEMBL1149448

>  <bao_format>  (316) 
BAO_0000019

>  <data_validity_description>  (316) 
None

>  <activity_id>  (316) 
1678617

>  <standard_type>  (316) 
IC50

>  <target_chembl_id>  (316) 
CHEMBL233

>  <data_validity_comment>  (316) 
None

>  <published_value>  (316) 
280

>  <document_year>  (316) 
2006

>  <target_pref_name>  (316) 
Mu opioid receptor

>  <assay_chembl_id>  (316) 
CHEMBL866455

>  <standard_relation>  (316) 
=

>  <assay_description>  (316) 
Inhibition of loperamide-stimulated [35S]GTP-gamma-S binding to membranes containing mu opioid receptor

>  <published_relation>  (316) 
=

>  <standard_value>  (316) 
280

>  <qudt_units>  (316) 
http://www.openphacts.org/units/Nanomolar

>  <target_tax_id>  (316) 
9606

>  <bao_label>  (316) 
assay format

>  <published_units>  (316) 
nM

>  <pchembl_value>  (316) 
6.55

>  <published_type>  (316) 
IC50

>  <activity_comment>  (316) 
None

$$$$

     RDKit          

 34 37  0  0  0  0  0  0  0  0999 V2000
    0.0000    0.0000    0.0000 C   0  0  0  0  0  0  0  0  0  0  0  0
    0.0000    0.0000    0.0000 C   0  0  0  0  0  0  0  0  0  0  0  0
    0.0000    0.0000    0.0000 C   0  0  0  0  0  0  0  0  0  0  0  0
    0.0000    0.0000    0.0000 N   0  0  0  0  0  0  0  0  0  0  0  0
    0.0000    0.0000    0.0000 C   0  0  0  0  0  0  0  0  0  0  0  0
    0.0000    0.0000    0.0000 C   0  0  0  0  0  0  0  0  0  0  0  0
    0.0000    0.0000    0.0000 C   0  0  0  0  0  0  0  0  0  0  0  0
    0.0000    0.0000    0.0000 C   0  0  0  0  0  0  0  0  0  0  0  0
    0.0000    0.0000    0.0000 C   0  0  0  0  0  0  0  0  0  0  0  0
    0.0000    0.0000    0.0000 C   0  0  0  0  0  0  0  0  0  0  0  0
    0.0000    0.0000    0.0000 C   0  0  0  0  0  0  0  0  0  0  0  0
    0.0000    0.0000    0.0000 C   0  0  0  0  0  0  0  0  0  0  0  0
    0.0000    0.0000    0.0000 C   0  0  0  0  0  0  0  0  0  0  0  0
    0.0000    0.0000    0.0000 C   0  0  0  0  0  0  0  0  0  0  0  0
    0.0000    0.0000    0.0000 C   0  0  0  0  0  0  0  0  0  0  0  0
    0.0000    0.0000    0.0000 N   0  0  0  0  0  0  0  0  0  0  0  0
    0.0000    0.0000    0.0000 C   0  0  0  0  0  0  0  0  0  0  0  0
    0.0000    0.0000    0.0000 O   0  0  0  0  0  0  0  0  0  0  0  0
    0.0000    0.0000    0.0000 C   0  0  0  0  0  0  0  0  0  0  0  0
    0.0000    0.0000    0.0000 C   0  0  0  0  0  0  0  0  0  0  0  0
    0.0000    0.0000    0.0000 C   0  0  0  0  0  0  0  0  0  0  0  0
    0.0000    0.0000    0.0000 C   0  0  0  0  0  0  0  0  0  0  0  0
    0.0000    0.0000    0.0000 C   0  0  0  0  0  0  0  0  0  0  0  0
    0.0000    0.0000    0.0000 C   0  0  0  0  0  0  0  0  0  0  0  0
    0.0000    0.0000    0.0000 C   0  0  0  0  0  0  0  0  0  0  0  0
    0.0000    0.0000    0.0000 C   0  0  0  0  0  0  0  0  0  0  0  0
    0.0000    0.0000    0.0000 C   0  0  0  0  0  0  0  0  0  0  0  0
    0.0000    0.0000    0.0000 C   0  0  0  0  0  0  0  0  0  0  0  0
    0.0000    0.0000    0.0000 C   0  0  0  0  0  0  0  0  0  0  0  0
    0.0000    0.0000    0.0000 C   0  0  0  0  0  0  0  0  0  0  0  0
    0.0000    0.0000    0.0000 C   0  0  0  0  0  0  0  0  0  0  0  0
    0.0000    0.0000    0.0000 C   0  0  0  0  0  0  0  0  0  0  0  0
    0.0000    0.0000    0.0000 O   0  0  0  0  0  0  0  0  0  0  0  0
    0.0000    0.0000    0.0000 C   0  0  0  0  0  0  0  0  0  0  0  0
  1  2  1  0
  2  3  1  0
  3  4  1  0
  4  5  1  0
  5  6  1  0
  6  7  1  0
  7  8  2  0
  8  9  1  0
  9 10  2  0
 10 11  1  0
 11 12  2  0
  4 13  1  0
 13 14  1  0
 14 15  1  0
 15 16  1  0
 16 17  1  0
 17 18  2  0
 17 19  1  0
 19 20  2  0
 20 21  1  0
 21 22  2  0
 22 23  1  0
 23 24  2  0
 13 25  1  0
 25 26  1  0
 26 27  1  0
 26 28  1  0
 28 29  2  0
 29 30  1  0
 30 31  2  0
 31 32  1  0
 32 33  1  0
 32 34  2  0
 26  2  1  0
 12  7  1  0
 24 19  1  0
 34 28  1  0
M  END
>  <pIC50>  (317) 
6.89

>  <ChEMBL_ID>  (317) 
CHEMBL201845

>  <document_journal>  (317) 
Bioorg. Med. Chem. Lett.

>  <bao_endpoint>  (317) 
BAO_0000190

>  <potential_duplicate>  (317) 
False

>  <uo_units>  (317) 
UO_0000065

>  <canonical_smiles>  (317) 
C[C@H]1CN(CCc2ccccc2)[C@H](CCNC(=O)c3ccccc3)C[C@@]1(C)c4cccc(O)c4

>  <parent_molecule_chembl_id>  (317) 
CHEMBL201845

>  <assay_type>  (317) 
F

>  <src_id>  (317) 
1

>  <ligand_efficiency>  (317) 
None

>  <standard_flag>  (317) 
True

>  <molecule_chembl_id>  (317) 
CHEMBL201845

>  <target_organism>  (317) 
Homo sapiens

>  <standard_units>  (317) 
nM

>  <record_id>  (317) 
426837

>  <document_chembl_id>  (317) 
CHEMBL1149448

>  <bao_format>  (317) 
BAO_0000019

>  <data_validity_description>  (317) 
None

>  <activity_id>  (317) 
1678620

>  <standard_type>  (317) 
IC50

>  <target_chembl_id>  (317) 
CHEMBL233

>  <data_validity_comment>  (317) 
None

>  <published_value>  (317) 
130

>  <document_year>  (317) 
2006

>  <target_pref_name>  (317) 
Mu opioid receptor

>  <assay_chembl_id>  (317) 
CHEMBL866455

>  <standard_relation>  (317) 
=

>  <assay_description>  (317) 
Inhibition of loperamide-stimulated [35S]GTP-gamma-S binding to membranes containing mu opioid receptor

>  <published_relation>  (317) 
=

>  <standard_value>  (317) 
130

>  <qudt_units>  (317) 
http://www.openphacts.org/units/Nanomolar

>  <target_tax_id>  (317) 
9606

>  <bao_label>  (317) 
assay format

>  <published_units>  (317) 
nM

>  <pchembl_value>  (317) 
6.89

>  <published_type>  (317) 
IC50

>  <activity_comment>  (317) 
None

$$$$

     RDKit          

 29 31  0  0  0  0  0  0  0  0999 V2000
    0.0000    0.0000    0.0000 C   0  0  0  0  0  0  0  0  0  0  0  0
    0.0000    0.0000    0.0000 C   0  0  0  0  0  0  0  0  0  0  0  0
    0.0000    0.0000    0.0000 C   0  0  0  0  0  0  0  0  0  0  0  0
    0.0000    0.0000    0.0000 N   0  0  0  0  0  0  0  0  0  0  0  0
    0.0000    0.0000    0.0000 C   0  0  0  0  0  0  0  0  0  0  0  0
    0.0000    0.0000    0.0000 C   0  0  0  0  0  0  0  0  0  0  0  0
    0.0000    0.0000    0.0000 C   0  0  0  0  0  0  0  0  0  0  0  0
    0.0000    0.0000    0.0000 C   0  0  0  0  0  0  0  0  0  0  0  0
    0.0000    0.0000    0.0000 C   0  0  0  0  0  0  0  0  0  0  0  0
    0.0000    0.0000    0.0000 C   0  0  0  0  0  0  0  0  0  0  0  0
    0.0000    0.0000    0.0000 C   0  0  0  0  0  0  0  0  0  0  0  0
    0.0000    0.0000    0.0000 C   0  0  0  0  0  0  0  0  0  0  0  0
    0.0000    0.0000    0.0000 C   0  0  0  0  0  0  0  0  0  0  0  0
    0.0000    0.0000    0.0000 C   0  0  0  0  0  0  0  0  0  0  0  0
    0.0000    0.0000    0.0000 C   0  0  0  0  0  0  0  0  0  0  0  0
    0.0000    0.0000    0.0000 N   0  0  0  0  0  0  0  0  0  0  0  0
    0.0000    0.0000    0.0000 C   0  0  0  0  0  0  0  0  0  0  0  0
    0.0000    0.0000    0.0000 O   0  0  0  0  0  0  0  0  0  0  0  0
    0.0000    0.0000    0.0000 C   0  0  0  0  0  0  0  0  0  0  0  0
    0.0000    0.0000    0.0000 C   0  0  0  0  0  0  0  0  0  0  0  0
    0.0000    0.0000    0.0000 C   0  0  0  0  0  0  0  0  0  0  0  0
    0.0000    0.0000    0.0000 C   0  0  0  0  0  0  0  0  0  0  0  0
    0.0000    0.0000    0.0000 C   0  0  0  0  0  0  0  0  0  0  0  0
    0.0000    0.0000    0.0000 C   0  0  0  0  0  0  0  0  0  0  0  0
    0.0000    0.0000    0.0000 C   0  0  0  0  0  0  0  0  0  0  0  0
    0.0000    0.0000    0.0000 C   0  0  0  0  0  0  0  0  0  0  0  0
    0.0000    0.0000    0.0000 C   0  0  0  0  0  0  0  0  0  0  0  0
    0.0000    0.0000    0.0000 O   0  0  0  0  0  0  0  0  0  0  0  0
    0.0000    0.0000    0.0000 C   0  0  0  0  0  0  0  0  0  0  0  0
  1  2  1  0
  2  3  1  0
  3  4  1  0
  4  5  1  0
  5  6  1  0
  6  7  1  0
  7  8  2  0
  8  9  1  0
  9 10  2  0
 10 11  1  0
 11 12  2  0
  4 13  1  0
 13 14  1  0
 14 15  1  0
 15 16  1  0
 16 17  1  0
 17 18  2  0
 17 19  1  0
 13 20  1  0
 20 21  1  0
 21 22  1  0
 21 23  1  0
 23 24  2  0
 24 25  1  0
 25 26  2  0
 26 27  1  0
 27 28  1  0
 27 29  2  0
 21  2  1  0
 12  7  1  0
 29 23  1  0
M  END
>  <pIC50>  (318) 
6.89

>  <ChEMBL_ID>  (318) 
CHEMBL383491

>  <document_journal>  (318) 
Bioorg. Med. Chem. Lett.

>  <bao_endpoint>  (318) 
BAO_0000190

>  <potential_duplicate>  (318) 
False

>  <uo_units>  (318) 
UO_0000065

>  <canonical_smiles>  (318) 
C[C@H]1CN(CCc2ccccc2)[C@H](CCNC(=O)C)C[C@@]1(C)c3cccc(O)c3

>  <parent_molecule_chembl_id>  (318) 
CHEMBL383491

>  <assay_type>  (318) 
F

>  <src_id>  (318) 
1

>  <ligand_efficiency>  (318) 
None

>  <standard_flag>  (318) 
True

>  <molecule_chembl_id>  (318) 
CHEMBL383491

>  <target_organism>  (318) 
Homo sapiens

>  <standard_units>  (318) 
nM

>  <record_id>  (318) 
426836

>  <document_chembl_id>  (318) 
CHEMBL1149448

>  <bao_format>  (318) 
BAO_0000019

>  <data_validity_description>  (318) 
None

>  <activity_id>  (318) 
1678621

>  <standard_type>  (318) 
IC50

>  <target_chembl_id>  (318) 
CHEMBL233

>  <data_validity_comment>  (318) 
None

>  <published_value>  (318) 
130

>  <document_year>  (318) 
2006

>  <target_pref_name>  (318) 
Mu opioid receptor

>  <assay_chembl_id>  (318) 
CHEMBL866455

>  <standard_relation>  (318) 
=

>  <assay_description>  (318) 
Inhibition of loperamide-stimulated [35S]GTP-gamma-S binding to membranes containing mu opioid receptor

>  <published_relation>  (318) 
=

>  <standard_value>  (318) 
130

>  <qudt_units>  (318) 
http://www.openphacts.org/units/Nanomolar

>  <target_tax_id>  (318) 
9606

>  <bao_label>  (318) 
assay format

>  <published_units>  (318) 
nM

>  <pchembl_value>  (318) 
6.89

>  <published_type>  (318) 
IC50

>  <activity_comment>  (318) 
None

$$$$

     RDKit          

 26 28  0  0  0  0  0  0  0  0999 V2000
    0.0000    0.0000    0.0000 C   0  0  0  0  0  0  0  0  0  0  0  0
    0.0000    0.0000    0.0000 C   0  0  0  0  0  0  0  0  0  0  0  0
    0.0000    0.0000    0.0000 C   0  0  0  0  0  0  0  0  0  0  0  0
    0.0000    0.0000    0.0000 N   0  0  0  0  0  0  0  0  0  0  0  0
    0.0000    0.0000    0.0000 C   0  0  0  0  0  0  0  0  0  0  0  0
    0.0000    0.0000    0.0000 C   0  0  0  0  0  0  0  0  0  0  0  0
    0.0000    0.0000    0.0000 C   0  0  0  0  0  0  0  0  0  0  0  0
    0.0000    0.0000    0.0000 C   0  0  0  0  0  0  0  0  0  0  0  0
    0.0000    0.0000    0.0000 C   0  0  0  0  0  0  0  0  0  0  0  0
    0.0000    0.0000    0.0000 C   0  0  0  0  0  0  0  0  0  0  0  0
    0.0000    0.0000    0.0000 C   0  0  0  0  0  0  0  0  0  0  0  0
    0.0000    0.0000    0.0000 C   0  0  0  0  0  0  0  0  0  0  0  0
    0.0000    0.0000    0.0000 C   0  0  0  0  0  0  0  0  0  0  0  0
    0.0000    0.0000    0.0000 C   0  0  0  0  0  0  0  0  0  0  0  0
    0.0000    0.0000    0.0000 C   0  0  0  0  0  0  0  0  0  0  0  0
    0.0000    0.0000    0.0000 N   0  0  0  0  0  0  0  0  0  0  0  0
    0.0000    0.0000    0.0000 C   0  0  0  0  0  0  0  0  0  0  0  0
    0.0000    0.0000    0.0000 C   0  0  0  0  0  0  0  0  0  0  0  0
    0.0000    0.0000    0.0000 C   0  0  0  0  0  0  0  0  0  0  0  0
    0.0000    0.0000    0.0000 C   0  0  0  0  0  0  0  0  0  0  0  0
    0.0000    0.0000    0.0000 C   0  0  0  0  0  0  0  0  0  0  0  0
    0.0000    0.0000    0.0000 C   0  0  0  0  0  0  0  0  0  0  0  0
    0.0000    0.0000    0.0000 C   0  0  0  0  0  0  0  0  0  0  0  0
    0.0000    0.0000    0.0000 C   0  0  0  0  0  0  0  0  0  0  0  0
    0.0000    0.0000    0.0000 O   0  0  0  0  0  0  0  0  0  0  0  0
    0.0000    0.0000    0.0000 C   0  0  0  0  0  0  0  0  0  0  0  0
  1  2  1  0
  2  3  1  0
  3  4  1  0
  4  5  1  0
  5  6  1  0
  6  7  1  0
  7  8  2  0
  8  9  1  0
  9 10  2  0
 10 11  1  0
 11 12  2  0
  4 13  1  0
 13 14  1  0
 14 15  1  0
 15 16  1  0
 13 17  1  0
 17 18  1  0
 18 19  1  0
 18 20  1  0
 20 21  2  0
 21 22  1  0
 22 23  2  0
 23 24  1  0
 24 25  1  0
 24 26  2  0
 18  2  1  0
 12  7  1  0
 26 20  1  0
M  END
>  <pIC50>  (319) 
6.41

>  <ChEMBL_ID>  (319) 
CHEMBL201530

>  <document_journal>  (319) 
Bioorg. Med. Chem. Lett.

>  <bao_endpoint>  (319) 
BAO_0000190

>  <potential_duplicate>  (319) 
False

>  <uo_units>  (319) 
UO_0000065

>  <canonical_smiles>  (319) 
C[C@H]1CN(CCc2ccccc2)[C@H](CCN)C[C@@]1(C)c3cccc(O)c3

>  <parent_molecule_chembl_id>  (319) 
CHEMBL201530

>  <assay_type>  (319) 
F

>  <src_id>  (319) 
1

>  <ligand_efficiency>  (319) 
None

>  <standard_flag>  (319) 
True

>  <molecule_chembl_id>  (319) 
CHEMBL201530

>  <target_organism>  (319) 
Homo sapiens

>  <standard_units>  (319) 
nM

>  <record_id>  (319) 
426835

>  <document_chembl_id>  (319) 
CHEMBL1149448

>  <bao_format>  (319) 
BAO_0000019

>  <data_validity_description>  (319) 
None

>  <activity_id>  (319) 
1678622

>  <standard_type>  (319) 
IC50

>  <target_chembl_id>  (319) 
CHEMBL233

>  <data_validity_comment>  (319) 
None

>  <published_value>  (319) 
390

>  <document_year>  (319) 
2006

>  <target_pref_name>  (319) 
Mu opioid receptor

>  <assay_chembl_id>  (319) 
CHEMBL866455

>  <standard_relation>  (319) 
=

>  <assay_description>  (319) 
Inhibition of loperamide-stimulated [35S]GTP-gamma-S binding to membranes containing mu opioid receptor

>  <published_relation>  (319) 
=

>  <standard_value>  (319) 
390

>  <qudt_units>  (319) 
http://www.openphacts.org/units/Nanomolar

>  <target_tax_id>  (319) 
9606

>  <bao_label>  (319) 
assay format

>  <published_units>  (319) 
nM

>  <pchembl_value>  (319) 
6.41

>  <published_type>  (319) 
IC50

>  <activity_comment>  (319) 
None

$$$$

     RDKit          

 27 29  0  0  0  0  0  0  0  0999 V2000
    0.0000    0.0000    0.0000 C   0  0  0  0  0  0  0  0  0  0  0  0
    0.0000    0.0000    0.0000 C   0  0  0  0  0  0  0  0  0  0  0  0
    0.0000    0.0000    0.0000 C   0  0  0  0  0  0  0  0  0  0  0  0
    0.0000    0.0000    0.0000 C   0  0  0  0  0  0  0  0  0  0  0  0
    0.0000    0.0000    0.0000 C   0  0  0  0  0  0  0  0  0  0  0  0
    0.0000    0.0000    0.0000 C   0  0  0  0  0  0  0  0  0  0  0  0
    0.0000    0.0000    0.0000 C   0  0  0  0  0  0  0  0  0  0  0  0
    0.0000    0.0000    0.0000 C   0  0  0  0  0  0  0  0  0  0  0  0
    0.0000    0.0000    0.0000 C   0  0  0  0  0  0  0  0  0  0  0  0
    0.0000    0.0000    0.0000 C   0  0  0  0  0  0  0  0  0  0  0  0
    0.0000    0.0000    0.0000 C   0  0  0  0  0  0  0  0  0  0  0  0
    0.0000    0.0000    0.0000 N   0  0  0  0  0  0  0  0  0  0  0  0
    0.0000    0.0000    0.0000 C   0  0  0  0  0  0  0  0  0  0  0  0
    0.0000    0.0000    0.0000 C   0  0  0  0  0  0  0  0  0  0  0  0
    0.0000    0.0000    0.0000 C   0  0  0  0  0  0  0  0  0  0  0  0
    0.0000    0.0000    0.0000 C   0  0  0  0  0  0  0  0  0  0  0  0
    0.0000    0.0000    0.0000 C   0  0  0  0  0  0  0  0  0  0  0  0
    0.0000    0.0000    0.0000 C   0  0  0  0  0  0  0  0  0  0  0  0
    0.0000    0.0000    0.0000 C   0  0  0  0  0  0  0  0  0  0  0  0
    0.0000    0.0000    0.0000 C   0  0  0  0  0  0  0  0  0  0  0  0
    0.0000    0.0000    0.0000 C   0  0  0  0  0  0  0  0  0  0  0  0
    0.0000    0.0000    0.0000 C   0  0  0  0  0  0  0  0  0  0  0  0
    0.0000    0.0000    0.0000 C   0  0  0  0  0  0  0  0  0  0  0  0
    0.0000    0.0000    0.0000 C   0  0  0  0  0  0  0  0  0  0  0  0
    0.0000    0.0000    0.0000 C   0  0  0  0  0  0  0  0  0  0  0  0
    0.0000    0.0000    0.0000 O   0  0  0  0  0  0  0  0  0  0  0  0
    0.0000    0.0000    0.0000 C   0  0  0  0  0  0  0  0  0  0  0  0
  1  2  1  0
  2  3  1  0
  3  4  1  0
  4  5  1  0
  5  6  1  0
  6  7  1  0
  7  8  1  0
  7  9  1  0
  9 10  1  0
  9 11  1  0
 11 12  1  0
 12 13  1  0
 13 14  1  0
 14 15  1  0
 15 16  2  0
 16 17  1  0
 17 18  2  0
 18 19  1  0
 19 20  2  0
  7 21  1  0
 21 22  2  0
 22 23  1  0
 23 24  2  0
 24 25  1  0
 25 26  1  0
 25 27  2  0
 12  5  1  0
 20 15  1  0
 27 21  1  0
M  END
>  <pIC50>  (320) 
6.92

>  <ChEMBL_ID>  (320) 
CHEMBL202352

>  <document_journal>  (320) 
Bioorg. Med. Chem. Lett.

>  <bao_endpoint>  (320) 
BAO_0000190

>  <potential_duplicate>  (320) 
False

>  <uo_units>  (320) 
UO_0000065

>  <canonical_smiles>  (320) 
CCCC[C@@H]1C[C@](C)([C@@H](C)CN1CCc2ccccc2)c3cccc(O)c3

>  <parent_molecule_chembl_id>  (320) 
CHEMBL202352

>  <assay_type>  (320) 
F

>  <src_id>  (320) 
1

>  <ligand_efficiency>  (320) 
None

>  <standard_flag>  (320) 
True

>  <molecule_chembl_id>  (320) 
CHEMBL202352

>  <target_organism>  (320) 
Homo sapiens

>  <standard_units>  (320) 
nM

>  <record_id>  (320) 
426834

>  <document_chembl_id>  (320) 
CHEMBL1149448

>  <bao_format>  (320) 
BAO_0000019

>  <data_validity_description>  (320) 
None

>  <activity_id>  (320) 
1678623

>  <standard_type>  (320) 
IC50

>  <target_chembl_id>  (320) 
CHEMBL233

>  <data_validity_comment>  (320) 
None

>  <published_value>  (320) 
120

>  <document_year>  (320) 
2006

>  <target_pref_name>  (320) 
Mu opioid receptor

>  <assay_chembl_id>  (320) 
CHEMBL866455

>  <standard_relation>  (320) 
=

>  <assay_description>  (320) 
Inhibition of loperamide-stimulated [35S]GTP-gamma-S binding to membranes containing mu opioid receptor

>  <published_relation>  (320) 
=

>  <standard_value>  (320) 
120

>  <qudt_units>  (320) 
http://www.openphacts.org/units/Nanomolar

>  <target_tax_id>  (320) 
9606

>  <bao_label>  (320) 
assay format

>  <published_units>  (320) 
nM

>  <pchembl_value>  (320) 
6.92

>  <published_type>  (320) 
IC50

>  <activity_comment>  (320) 
None

$$$$

     RDKit          

 26 28  0  0  0  0  0  0  0  0999 V2000
    0.0000    0.0000    0.0000 C   0  0  0  0  0  0  0  0  0  0  0  0
    0.0000    0.0000    0.0000 C   0  0  0  0  0  0  0  0  0  0  0  0
    0.0000    0.0000    0.0000 C   0  0  0  0  0  0  0  0  0  0  0  0
    0.0000    0.0000    0.0000 C   0  0  0  0  0  0  0  0  0  0  0  0
    0.0000    0.0000    0.0000 C   0  0  0  0  0  0  0  0  0  0  0  0
    0.0000    0.0000    0.0000 C   0  0  0  0  0  0  0  0  0  0  0  0
    0.0000    0.0000    0.0000 C   0  0  0  0  0  0  0  0  0  0  0  0
    0.0000    0.0000    0.0000 C   0  0  0  0  0  0  0  0  0  0  0  0
    0.0000    0.0000    0.0000 C   0  0  0  0  0  0  0  0  0  0  0  0
    0.0000    0.0000    0.0000 C   0  0  0  0  0  0  0  0  0  0  0  0
    0.0000    0.0000    0.0000 N   0  0  0  0  0  0  0  0  0  0  0  0
    0.0000    0.0000    0.0000 C   0  0  0  0  0  0  0  0  0  0  0  0
    0.0000    0.0000    0.0000 C   0  0  0  0  0  0  0  0  0  0  0  0
    0.0000    0.0000    0.0000 C   0  0  0  0  0  0  0  0  0  0  0  0
    0.0000    0.0000    0.0000 C   0  0  0  0  0  0  0  0  0  0  0  0
    0.0000    0.0000    0.0000 C   0  0  0  0  0  0  0  0  0  0  0  0
    0.0000    0.0000    0.0000 C   0  0  0  0  0  0  0  0  0  0  0  0
    0.0000    0.0000    0.0000 C   0  0  0  0  0  0  0  0  0  0  0  0
    0.0000    0.0000    0.0000 C   0  0  0  0  0  0  0  0  0  0  0  0
    0.0000    0.0000    0.0000 C   0  0  0  0  0  0  0  0  0  0  0  0
    0.0000    0.0000    0.0000 C   0  0  0  0  0  0  0  0  0  0  0  0
    0.0000    0.0000    0.0000 C   0  0  0  0  0  0  0  0  0  0  0  0
    0.0000    0.0000    0.0000 C   0  0  0  0  0  0  0  0  0  0  0  0
    0.0000    0.0000    0.0000 C   0  0  0  0  0  0  0  0  0  0  0  0
    0.0000    0.0000    0.0000 O   0  0  0  0  0  0  0  0  0  0  0  0
    0.0000    0.0000    0.0000 C   0  0  0  0  0  0  0  0  0  0  0  0
  1  2  1  0
  2  3  1  0
  2  4  1  0
  4  5  1  0
  5  6  1  0
  6  7  1  0
  6  8  1  0
  8  9  1  0
  8 10  1  0
 10 11  1  0
 11 12  1  0
 12 13  1  0
 13 14  1  0
 14 15  2  0
 15 16  1  0
 16 17  2  0
 17 18  1  0
 18 19  2  0
  6 20  1  0
 20 21  2  0
 21 22  1  0
 22 23  2  0
 23 24  1  0
 24 25  1  0
 24 26  2  0
 11  4  1  0
 19 14  1  0
 26 20  1  0
M  END
>  <pIC50>  (321) 
6.21

>  <ChEMBL_ID>  (321) 
CHEMBL425758

>  <document_journal>  (321) 
Bioorg. Med. Chem. Lett.

>  <bao_endpoint>  (321) 
BAO_0000190

>  <potential_duplicate>  (321) 
False

>  <uo_units>  (321) 
UO_0000065

>  <canonical_smiles>  (321) 
CC(C)[C@@H]1C[C@](C)([C@@H](C)CN1CCc2ccccc2)c3cccc(O)c3

>  <parent_molecule_chembl_id>  (321) 
CHEMBL425758

>  <assay_type>  (321) 
F

>  <src_id>  (321) 
1

>  <ligand_efficiency>  (321) 
None

>  <standard_flag>  (321) 
True

>  <molecule_chembl_id>  (321) 
CHEMBL425758

>  <target_organism>  (321) 
Homo sapiens

>  <standard_units>  (321) 
nM

>  <record_id>  (321) 
426833

>  <document_chembl_id>  (321) 
CHEMBL1149448

>  <bao_format>  (321) 
BAO_0000019

>  <data_validity_description>  (321) 
None

>  <activity_id>  (321) 
1678624

>  <standard_type>  (321) 
IC50

>  <target_chembl_id>  (321) 
CHEMBL233

>  <data_validity_comment>  (321) 
None

>  <published_value>  (321) 
620

>  <document_year>  (321) 
2006

>  <target_pref_name>  (321) 
Mu opioid receptor

>  <assay_chembl_id>  (321) 
CHEMBL866455

>  <standard_relation>  (321) 
=

>  <assay_description>  (321) 
Inhibition of loperamide-stimulated [35S]GTP-gamma-S binding to membranes containing mu opioid receptor

>  <published_relation>  (321) 
=

>  <standard_value>  (321) 
620

>  <qudt_units>  (321) 
http://www.openphacts.org/units/Nanomolar

>  <target_tax_id>  (321) 
9606

>  <bao_label>  (321) 
assay format

>  <published_units>  (321) 
nM

>  <pchembl_value>  (321) 
6.21

>  <published_type>  (321) 
IC50

>  <activity_comment>  (321) 
None

$$$$

     RDKit          

 26 28  0  0  0  0  0  0  0  0999 V2000
    0.0000    0.0000    0.0000 C   0  0  0  0  0  0  0  0  0  0  0  0
    0.0000    0.0000    0.0000 C   0  0  0  0  0  0  0  0  0  0  0  0
    0.0000    0.0000    0.0000 C   0  0  0  0  0  0  0  0  0  0  0  0
    0.0000    0.0000    0.0000 C   0  0  0  0  0  0  0  0  0  0  0  0
    0.0000    0.0000    0.0000 C   0  0  0  0  0  0  0  0  0  0  0  0
    0.0000    0.0000    0.0000 C   0  0  0  0  0  0  0  0  0  0  0  0
    0.0000    0.0000    0.0000 C   0  0  0  0  0  0  0  0  0  0  0  0
    0.0000    0.0000    0.0000 C   0  0  0  0  0  0  0  0  0  0  0  0
    0.0000    0.0000    0.0000 C   0  0  0  0  0  0  0  0  0  0  0  0
    0.0000    0.0000    0.0000 C   0  0  0  0  0  0  0  0  0  0  0  0
    0.0000    0.0000    0.0000 N   0  0  0  0  0  0  0  0  0  0  0  0
    0.0000    0.0000    0.0000 C   0  0  0  0  0  0  0  0  0  0  0  0
    0.0000    0.0000    0.0000 C   0  0  0  0  0  0  0  0  0  0  0  0
    0.0000    0.0000    0.0000 C   0  0  0  0  0  0  0  0  0  0  0  0
    0.0000    0.0000    0.0000 C   0  0  0  0  0  0  0  0  0  0  0  0
    0.0000    0.0000    0.0000 C   0  0  0  0  0  0  0  0  0  0  0  0
    0.0000    0.0000    0.0000 C   0  0  0  0  0  0  0  0  0  0  0  0
    0.0000    0.0000    0.0000 C   0  0  0  0  0  0  0  0  0  0  0  0
    0.0000    0.0000    0.0000 C   0  0  0  0  0  0  0  0  0  0  0  0
    0.0000    0.0000    0.0000 C   0  0  0  0  0  0  0  0  0  0  0  0
    0.0000    0.0000    0.0000 C   0  0  0  0  0  0  0  0  0  0  0  0
    0.0000    0.0000    0.0000 C   0  0  0  0  0  0  0  0  0  0  0  0
    0.0000    0.0000    0.0000 C   0  0  0  0  0  0  0  0  0  0  0  0
    0.0000    0.0000    0.0000 C   0  0  0  0  0  0  0  0  0  0  0  0
    0.0000    0.0000    0.0000 O   0  0  0  0  0  0  0  0  0  0  0  0
    0.0000    0.0000    0.0000 C   0  0  0  0  0  0  0  0  0  0  0  0
  1  2  1  0
  2  3  1  0
  3  4  1  0
  4  5  1  0
  5  6  1  0
  6  7  1  0
  6  8  1  0
  8  9  1  0
  8 10  1  0
 10 11  1  0
 11 12  1  0
 12 13  1  0
 13 14  1  0
 14 15  2  0
 15 16  1  0
 16 17  2  0
 17 18  1  0
 18 19  2  0
  6 20  1  0
 20 21  2  0
 21 22  1  0
 22 23  2  0
 23 24  1  0
 24 25  1  0
 24 26  2  0
 11  4  1  0
 19 14  1  0
 26 20  1  0
M  END
>  <pIC50>  (322) 
7.82

>  <ChEMBL_ID>  (322) 
CHEMBL382919

>  <document_journal>  (322) 
Bioorg. Med. Chem. Lett.

>  <bao_endpoint>  (322) 
BAO_0000190

>  <potential_duplicate>  (322) 
False

>  <uo_units>  (322) 
UO_0000065

>  <canonical_smiles>  (322) 
CCC[C@@H]1C[C@](C)([C@@H](C)CN1CCc2ccccc2)c3cccc(O)c3

>  <parent_molecule_chembl_id>  (322) 
CHEMBL382919

>  <assay_type>  (322) 
F

>  <src_id>  (322) 
1

>  <ligand_efficiency>  (322) 
None

>  <standard_flag>  (322) 
True

>  <molecule_chembl_id>  (322) 
CHEMBL382919

>  <target_organism>  (322) 
Homo sapiens

>  <standard_units>  (322) 
nM

>  <record_id>  (322) 
426832

>  <document_chembl_id>  (322) 
CHEMBL1149448

>  <bao_format>  (322) 
BAO_0000019

>  <data_validity_description>  (322) 
None

>  <activity_id>  (322) 
1678625

>  <standard_type>  (322) 
IC50

>  <target_chembl_id>  (322) 
CHEMBL233

>  <data_validity_comment>  (322) 
None

>  <published_value>  (322) 
15

>  <document_year>  (322) 
2006

>  <target_pref_name>  (322) 
Mu opioid receptor

>  <assay_chembl_id>  (322) 
CHEMBL866455

>  <standard_relation>  (322) 
=

>  <assay_description>  (322) 
Inhibition of loperamide-stimulated [35S]GTP-gamma-S binding to membranes containing mu opioid receptor

>  <published_relation>  (322) 
=

>  <standard_value>  (322) 
15

>  <qudt_units>  (322) 
http://www.openphacts.org/units/Nanomolar

>  <target_tax_id>  (322) 
9606

>  <bao_label>  (322) 
assay format

>  <published_units>  (322) 
nM

>  <pchembl_value>  (322) 
7.82

>  <published_type>  (322) 
IC50

>  <activity_comment>  (322) 
None

$$$$

     RDKit          

 25 27  0  0  0  0  0  0  0  0999 V2000
    0.0000    0.0000    0.0000 C   0  0  0  0  0  0  0  0  0  0  0  0
    0.0000    0.0000    0.0000 C   0  0  0  0  0  0  0  0  0  0  0  0
    0.0000    0.0000    0.0000 C   0  0  0  0  0  0  0  0  0  0  0  0
    0.0000    0.0000    0.0000 C   0  0  0  0  0  0  0  0  0  0  0  0
    0.0000    0.0000    0.0000 C   0  0  0  0  0  0  0  0  0  0  0  0
    0.0000    0.0000    0.0000 C   0  0  0  0  0  0  0  0  0  0  0  0
    0.0000    0.0000    0.0000 C   0  0  0  0  0  0  0  0  0  0  0  0
    0.0000    0.0000    0.0000 C   0  0  0  0  0  0  0  0  0  0  0  0
    0.0000    0.0000    0.0000 C   0  0  0  0  0  0  0  0  0  0  0  0
    0.0000    0.0000    0.0000 N   0  0  0  0  0  0  0  0  0  0  0  0
    0.0000    0.0000    0.0000 C   0  0  0  0  0  0  0  0  0  0  0  0
    0.0000    0.0000    0.0000 C   0  0  0  0  0  0  0  0  0  0  0  0
    0.0000    0.0000    0.0000 C   0  0  0  0  0  0  0  0  0  0  0  0
    0.0000    0.0000    0.0000 C   0  0  0  0  0  0  0  0  0  0  0  0
    0.0000    0.0000    0.0000 C   0  0  0  0  0  0  0  0  0  0  0  0
    0.0000    0.0000    0.0000 C   0  0  0  0  0  0  0  0  0  0  0  0
    0.0000    0.0000    0.0000 C   0  0  0  0  0  0  0  0  0  0  0  0
    0.0000    0.0000    0.0000 C   0  0  0  0  0  0  0  0  0  0  0  0
    0.0000    0.0000    0.0000 C   0  0  0  0  0  0  0  0  0  0  0  0
    0.0000    0.0000    0.0000 C   0  0  0  0  0  0  0  0  0  0  0  0
    0.0000    0.0000    0.0000 C   0  0  0  0  0  0  0  0  0  0  0  0
    0.0000    0.0000    0.0000 C   0  0  0  0  0  0  0  0  0  0  0  0
    0.0000    0.0000    0.0000 C   0  0  0  0  0  0  0  0  0  0  0  0
    0.0000    0.0000    0.0000 O   0  0  0  0  0  0  0  0  0  0  0  0
    0.0000    0.0000    0.0000 C   0  0  0  0  0  0  0  0  0  0  0  0
  1  2  1  0
  2  3  1  0
  3  4  1  0
  4  5  1  0
  5  6  1  0
  5  7  1  0
  7  8  1  0
  7  9  1  0
  9 10  1  0
 10 11  1  0
 11 12  1  0
 12 13  1  0
 13 14  2  0
 14 15  1  0
 15 16  2  0
 16 17  1  0
 17 18  2  0
  5 19  1  0
 19 20  2  0
 20 21  1  0
 21 22  2  0
 22 23  1  0
 23 24  1  0
 23 25  2  0
 10  3  1  0
 18 13  1  0
 25 19  1  0
M  END
>  <pIC50>  (323) 
7.05

>  <ChEMBL_ID>  (323) 
CHEMBL371970

>  <document_journal>  (323) 
Bioorg. Med. Chem. Lett.

>  <bao_endpoint>  (323) 
BAO_0000190

>  <potential_duplicate>  (323) 
False

>  <uo_units>  (323) 
UO_0000065

>  <canonical_smiles>  (323) 
CC[C@@H]1C[C@](C)([C@@H](C)CN1CCc2ccccc2)c3cccc(O)c3

>  <parent_molecule_chembl_id>  (323) 
CHEMBL371970

>  <assay_type>  (323) 
F

>  <src_id>  (323) 
1

>  <ligand_efficiency>  (323) 
None

>  <standard_flag>  (323) 
True

>  <molecule_chembl_id>  (323) 
CHEMBL371970

>  <target_organism>  (323) 
Homo sapiens

>  <standard_units>  (323) 
nM

>  <record_id>  (323) 
426831

>  <document_chembl_id>  (323) 
CHEMBL1149448

>  <bao_format>  (323) 
BAO_0000019

>  <data_validity_description>  (323) 
None

>  <activity_id>  (323) 
1678626

>  <standard_type>  (323) 
IC50

>  <target_chembl_id>  (323) 
CHEMBL233

>  <data_validity_comment>  (323) 
None

>  <published_value>  (323) 
90

>  <document_year>  (323) 
2006

>  <target_pref_name>  (323) 
Mu opioid receptor

>  <assay_chembl_id>  (323) 
CHEMBL866455

>  <standard_relation>  (323) 
=

>  <assay_description>  (323) 
Inhibition of loperamide-stimulated [35S]GTP-gamma-S binding to membranes containing mu opioid receptor

>  <published_relation>  (323) 
=

>  <standard_value>  (323) 
90

>  <qudt_units>  (323) 
http://www.openphacts.org/units/Nanomolar

>  <target_tax_id>  (323) 
9606

>  <bao_label>  (323) 
assay format

>  <published_units>  (323) 
nM

>  <pchembl_value>  (323) 
7.05

>  <published_type>  (323) 
IC50

>  <activity_comment>  (323) 
None

$$$$

     RDKit          

 24 26  0  0  0  0  0  0  0  0999 V2000
    0.0000    0.0000    0.0000 C   0  0  0  0  0  0  0  0  0  0  0  0
    0.0000    0.0000    0.0000 C   0  0  0  0  0  0  0  0  0  0  0  0
    0.0000    0.0000    0.0000 C   0  0  0  0  0  0  0  0  0  0  0  0
    0.0000    0.0000    0.0000 C   0  0  0  0  0  0  0  0  0  0  0  0
    0.0000    0.0000    0.0000 C   0  0  0  0  0  0  0  0  0  0  0  0
    0.0000    0.0000    0.0000 C   0  0  0  0  0  0  0  0  0  0  0  0
    0.0000    0.0000    0.0000 C   0  0  0  0  0  0  0  0  0  0  0  0
    0.0000    0.0000    0.0000 C   0  0  0  0  0  0  0  0  0  0  0  0
    0.0000    0.0000    0.0000 N   0  0  0  0  0  0  0  0  0  0  0  0
    0.0000    0.0000    0.0000 C   0  0  0  0  0  0  0  0  0  0  0  0
    0.0000    0.0000    0.0000 C   0  0  0  0  0  0  0  0  0  0  0  0
    0.0000    0.0000    0.0000 C   0  0  0  0  0  0  0  0  0  0  0  0
    0.0000    0.0000    0.0000 C   0  0  0  0  0  0  0  0  0  0  0  0
    0.0000    0.0000    0.0000 C   0  0  0  0  0  0  0  0  0  0  0  0
    0.0000    0.0000    0.0000 C   0  0  0  0  0  0  0  0  0  0  0  0
    0.0000    0.0000    0.0000 C   0  0  0  0  0  0  0  0  0  0  0  0
    0.0000    0.0000    0.0000 C   0  0  0  0  0  0  0  0  0  0  0  0
    0.0000    0.0000    0.0000 C   0  0  0  0  0  0  0  0  0  0  0  0
    0.0000    0.0000    0.0000 C   0  0  0  0  0  0  0  0  0  0  0  0
    0.0000    0.0000    0.0000 C   0  0  0  0  0  0  0  0  0  0  0  0
    0.0000    0.0000    0.0000 C   0  0  0  0  0  0  0  0  0  0  0  0
    0.0000    0.0000    0.0000 C   0  0  0  0  0  0  0  0  0  0  0  0
    0.0000    0.0000    0.0000 O   0  0  0  0  0  0  0  0  0  0  0  0
    0.0000    0.0000    0.0000 C   0  0  0  0  0  0  0  0  0  0  0  0
  1  2  1  0
  2  3  1  0
  3  4  1  0
  4  5  1  0
  4  6  1  0
  6  7  1  0
  6  8  1  0
  8  9  1  0
  9 10  1  0
 10 11  1  0
 11 12  1  0
 12 13  2  0
 13 14  1  0
 14 15  2  0
 15 16  1  0
 16 17  2  0
  4 18  1  0
 18 19  2  0
 19 20  1  0
 20 21  2  0
 21 22  1  0
 22 23  1  0
 22 24  2  0
  9  2  1  0
 17 12  1  0
 24 18  1  0
M  END
>  <pIC50>  (324) 
7.3

>  <ChEMBL_ID>  (324) 
CHEMBL203307

>  <document_journal>  (324) 
Bioorg. Med. Chem. Lett.

>  <bao_endpoint>  (324) 
BAO_0000190

>  <potential_duplicate>  (324) 
False

>  <uo_units>  (324) 
UO_0000065

>  <canonical_smiles>  (324) 
C[C@@H]1C[C@](C)([C@@H](C)CN1CCc2ccccc2)c3cccc(O)c3

>  <parent_molecule_chembl_id>  (324) 
CHEMBL203307

>  <assay_type>  (324) 
F

>  <src_id>  (324) 
1

>  <ligand_efficiency>  (324) 
None

>  <standard_flag>  (324) 
True

>  <molecule_chembl_id>  (324) 
CHEMBL203307

>  <target_organism>  (324) 
Homo sapiens

>  <standard_units>  (324) 
nM

>  <record_id>  (324) 
426830

>  <document_chembl_id>  (324) 
CHEMBL1149448

>  <bao_format>  (324) 
BAO_0000019

>  <data_validity_description>  (324) 
None

>  <activity_id>  (324) 
1678627

>  <standard_type>  (324) 
IC50

>  <target_chembl_id>  (324) 
CHEMBL233

>  <data_validity_comment>  (324) 
None

>  <published_value>  (324) 
50

>  <document_year>  (324) 
2006

>  <target_pref_name>  (324) 
Mu opioid receptor

>  <assay_chembl_id>  (324) 
CHEMBL866455

>  <standard_relation>  (324) 
=

>  <assay_description>  (324) 
Inhibition of loperamide-stimulated [35S]GTP-gamma-S binding to membranes containing mu opioid receptor

>  <published_relation>  (324) 
=

>  <standard_value>  (324) 
50

>  <qudt_units>  (324) 
http://www.openphacts.org/units/Nanomolar

>  <target_tax_id>  (324) 
9606

>  <bao_label>  (324) 
assay format

>  <published_units>  (324) 
nM

>  <pchembl_value>  (324) 
7.3

>  <published_type>  (324) 
IC50

>  <activity_comment>  (324) 
None

$$$$

     RDKit          

 28 29  0  0  0  0  0  0  0  0999 V2000
    0.0000    0.0000    0.0000 H   0  0  0  0  0  0  0  0  0  0  0  0
    0.0000    0.0000    0.0000 C   0  0  0  0  0  0  0  0  0  0  0  0
    0.0000    0.0000    0.0000 H   0  0  0  0  0  0  0  0  0  0  0  0
    0.0000    0.0000    0.0000 H   0  0  0  0  0  0  0  0  0  0  0  0
    0.0000    0.0000    0.0000 O   0  0  0  0  0  0  0  0  0  0  0  0
    0.0000    0.0000    0.0000 C   0  0  0  0  0  0  0  0  0  0  0  0
    0.0000    0.0000    0.0000 C   0  0  0  0  0  0  0  0  0  0  0  0
    0.0000    0.0000    0.0000 C   0  0  0  0  0  0  0  0  0  0  0  0
    0.0000    0.0000    0.0000 C   0  0  0  0  0  0  0  0  0  0  0  0
    0.0000    0.0000    0.0000 C   0  0  0  0  0  0  0  0  0  0  0  0
    0.0000    0.0000    0.0000 C   0  0  0  0  0  0  0  0  0  0  0  0
    0.0000    0.0000    0.0000 C   0  0  0  0  0  0  0  0  0  0  0  0
    0.0000    0.0000    0.0000 O   0  0  0  0  0  0  0  0  0  0  0  0
    0.0000    0.0000    0.0000 C   0  0  0  0  0  0  0  0  0  0  0  0
    0.0000    0.0000    0.0000 C   0  0  0  0  0  0  0  0  0  0  0  0
    0.0000    0.0000    0.0000 C   0  0  0  0  0  0  0  0  0  0  0  0
    0.0000    0.0000    0.0000 C   0  0  0  0  0  0  0  0  0  0  0  0
    0.0000    0.0000    0.0000 C   0  0  0  0  0  0  0  0  0  0  0  0
    0.0000    0.0000    0.0000 C   0  0  0  0  0  0  0  0  0  0  0  0
    0.0000    0.0000    0.0000 N   0  0  0  0  0  0  0  0  0  0  0  0
    0.0000    0.0000    0.0000 C   0  0  0  0  0  0  0  0  0  0  0  0
    0.0000    0.0000    0.0000 H   0  0  0  0  0  0  0  0  0  0  0  0
    0.0000    0.0000    0.0000 H   0  0  0  0  0  0  0  0  0  0  0  0
    0.0000    0.0000    0.0000 H   0  0  0  0  0  0  0  0  0  0  0  0
    0.0000    0.0000    0.0000 C   0  0  0  0  0  0  0  0  0  0  0  0
    0.0000    0.0000    0.0000 H   0  0  0  0  0  0  0  0  0  0  0  0
    0.0000    0.0000    0.0000 H   0  0  0  0  0  0  0  0  0  0  0  0
    0.0000    0.0000    0.0000 H   0  0  0  0  0  0  0  0  0  0  0  0
  1  2  1  0
  2  3  1  0
  2  4  1  0
  2  5  1  0
  5  6  1  0
  6  7  2  0
  7  8  1  0
  8  9  2  0
  9 10  1  0
 10 11  2  0
 10 12  1  0
 12 13  1  0
 12 14  1  0
 14 15  1  0
 15 16  1  0
 16 17  1  0
 17 18  1  0
 18 19  1  0
 19 20  1  0
 20 21  1  0
 21 22  1  0
 21 23  1  0
 21 24  1  0
 20 25  1  0
 25 26  1  0
 25 27  1  0
 25 28  1  0
 11  6  1  0
 18 12  1  0
M  ISO  8   1   2   3   2   4   2  22   2  23   2  24   2  26   2  27   2
M  ISO  1  28   2
M  END
>  <pIC50>  (325) 
5.28

>  <ChEMBL_ID>  (325) 
CHEMBL379021

>  <document_journal>  (325) 
Bioorg. Med. Chem. Lett.

>  <bao_endpoint>  (325) 
BAO_0000190

>  <potential_duplicate>  (325) 
False

>  <uo_units>  (325) 
UO_0000065

>  <canonical_smiles>  (325) 
[2H]C([2H])([2H])Oc1cccc(c1)[C@@]2(O)CCCC[C@@H]2CN(C([2H])([2H])[2H])C([2H])([2H])[2H]

>  <parent_molecule_chembl_id>  (325) 
CHEMBL1066

>  <assay_type>  (325) 
B

>  <src_id>  (325) 
1

>  <ligand_efficiency>  (325) 
{u'le': u'0.38', u'bei': u'20.03', u'sei': u'16.13', u'lle': u'2.58'}

>  <standard_flag>  (325) 
True

>  <molecule_chembl_id>  (325) 
CHEMBL379021

>  <target_organism>  (325) 
Homo sapiens

>  <standard_units>  (325) 
nM

>  <record_id>  (325) 
426093

>  <document_chembl_id>  (325) 
CHEMBL1149431

>  <bao_format>  (325) 
BAO_0000357

>  <data_validity_description>  (325) 
None

>  <activity_id>  (325) 
1679496

>  <standard_type>  (325) 
IC50

>  <target_chembl_id>  (325) 
CHEMBL233

>  <data_validity_comment>  (325) 
None

>  <published_value>  (325) 
5300

>  <document_year>  (325) 
2006

>  <target_pref_name>  (325) 
Mu opioid receptor

>  <assay_chembl_id>  (325) 
CHEMBL865906

>  <standard_relation>  (325) 
=

>  <assay_description>  (325) 
Inhibition of mu opioid receptor

>  <published_relation>  (325) 
=

>  <standard_value>  (325) 
5300

>  <qudt_units>  (325) 
http://www.openphacts.org/units/Nanomolar

>  <target_tax_id>  (325) 
9606

>  <bao_label>  (325) 
single protein format

>  <published_units>  (325) 
nM

>  <pchembl_value>  (325) 
5.28

>  <published_type>  (325) 
IC50

>  <activity_comment>  (325) 
None

$$$$

     RDKit          

 24 25  0  0  0  0  0  0  0  0999 V2000
    0.0000    0.0000    0.0000 H   0  0  0  0  0  0  0  0  0  0  0  0
    0.0000    0.0000    0.0000 C   0  0  0  0  0  0  0  0  0  0  0  0
    0.0000    0.0000    0.0000 H   0  0  0  0  0  0  0  0  0  0  0  0
    0.0000    0.0000    0.0000 H   0  0  0  0  0  0  0  0  0  0  0  0
    0.0000    0.0000    0.0000 N   0  0  0  0  0  0  0  0  0  0  0  0
    0.0000    0.0000    0.0000 C   0  0  0  0  0  0  0  0  0  0  0  0
    0.0000    0.0000    0.0000 C   0  0  0  0  0  0  0  0  0  0  0  0
    0.0000    0.0000    0.0000 C   0  0  0  0  0  0  0  0  0  0  0  0
    0.0000    0.0000    0.0000 C   0  0  0  0  0  0  0  0  0  0  0  0
    0.0000    0.0000    0.0000 C   0  0  0  0  0  0  0  0  0  0  0  0
    0.0000    0.0000    0.0000 C   0  0  0  0  0  0  0  0  0  0  0  0
    0.0000    0.0000    0.0000 C   0  0  0  0  0  0  0  0  0  0  0  0
    0.0000    0.0000    0.0000 O   0  0  0  0  0  0  0  0  0  0  0  0
    0.0000    0.0000    0.0000 C   0  0  0  0  0  0  0  0  0  0  0  0
    0.0000    0.0000    0.0000 C   0  0  0  0  0  0  0  0  0  0  0  0
    0.0000    0.0000    0.0000 C   0  0  0  0  0  0  0  0  0  0  0  0
    0.0000    0.0000    0.0000 C   0  0  0  0  0  0  0  0  0  0  0  0
    0.0000    0.0000    0.0000 C   0  0  0  0  0  0  0  0  0  0  0  0
    0.0000    0.0000    0.0000 O   0  0  0  0  0  0  0  0  0  0  0  0
    0.0000    0.0000    0.0000 C   0  0  0  0  0  0  0  0  0  0  0  0
    0.0000    0.0000    0.0000 C   0  0  0  0  0  0  0  0  0  0  0  0
    0.0000    0.0000    0.0000 H   0  0  0  0  0  0  0  0  0  0  0  0
    0.0000    0.0000    0.0000 H   0  0  0  0  0  0  0  0  0  0  0  0
    0.0000    0.0000    0.0000 H   0  0  0  0  0  0  0  0  0  0  0  0
  1  2  1  0
  2  3  1  0
  2  4  1  0
  2  5  1  0
  5  6  1  0
  6  7  1  0
  7  8  1  0
  8  9  1  0
  9 10  1  0
 10 11  1  0
 11 12  1  0
 12 13  1  0
 12 14  1  0
 14 15  2  0
 15 16  1  0
 16 17  2  0
 17 18  1  0
 18 19  1  0
 18 20  2  0
  5 21  1  0
 21 22  1  0
 21 23  1  0
 21 24  1  0
 12  7  1  0
 20 14  1  0
M  ISO  6   1   2   3   2   4   2  22   2  23   2  24   2
M  END
>  <pIC50>  (326) 
7.37

>  <ChEMBL_ID>  (326) 
CHEMBL201556

>  <document_journal>  (326) 
Bioorg. Med. Chem. Lett.

>  <bao_endpoint>  (326) 
BAO_0000190

>  <potential_duplicate>  (326) 
False

>  <uo_units>  (326) 
UO_0000065

>  <canonical_smiles>  (326) 
[2H]C([2H])([2H])N(C[C@H]1CCCC[C@]1(O)c2cccc(O)c2)C([2H])([2H])[2H]

>  <parent_molecule_chembl_id>  (326) 
CHEMBL1400

>  <assay_type>  (326) 
B

>  <src_id>  (326) 
1

>  <ligand_efficiency>  (326) 
{u'le': u'0.56', u'bei': u'29.54', u'sei': u'16.86', u'lle': u'4.89'}

>  <standard_flag>  (326) 
True

>  <molecule_chembl_id>  (326) 
CHEMBL201556

>  <target_organism>  (326) 
Homo sapiens

>  <standard_units>  (326) 
nM

>  <record_id>  (326) 
426092

>  <document_chembl_id>  (326) 
CHEMBL1149431

>  <bao_format>  (326) 
BAO_0000357

>  <data_validity_description>  (326) 
None

>  <activity_id>  (326) 
1679560

>  <standard_type>  (326) 
IC50

>  <target_chembl_id>  (326) 
CHEMBL233

>  <data_validity_comment>  (326) 
None

>  <published_value>  (326) 
43

>  <document_year>  (326) 
2006

>  <target_pref_name>  (326) 
Mu opioid receptor

>  <assay_chembl_id>  (326) 
CHEMBL865906

>  <standard_relation>  (326) 
=

>  <assay_description>  (326) 
Inhibition of mu opioid receptor

>  <published_relation>  (326) 
=

>  <standard_value>  (326) 
43

>  <qudt_units>  (326) 
http://www.openphacts.org/units/Nanomolar

>  <target_tax_id>  (326) 
9606

>  <bao_label>  (326) 
single protein format

>  <published_units>  (326) 
nM

>  <pchembl_value>  (326) 
7.37

>  <published_type>  (326) 
IC50

>  <activity_comment>  (326) 
None

$$$$

     RDKit          

 18 19  0  0  0  0  0  0  0  0999 V2000
    0.0000    0.0000    0.0000 C   0  0  0  0  0  0  0  0  0  0  0  0
    0.0000    0.0000    0.0000 N   0  0  0  0  0  0  0  0  0  0  0  0
    0.0000    0.0000    0.0000 C   0  0  0  0  0  0  0  0  0  0  0  0
    0.0000    0.0000    0.0000 C   0  0  0  0  0  0  0  0  0  0  0  0
    0.0000    0.0000    0.0000 C   0  0  0  0  0  0  0  0  0  0  0  0
    0.0000    0.0000    0.0000 C   0  0  0  0  0  0  0  0  0  0  0  0
    0.0000    0.0000    0.0000 C   0  0  0  0  0  0  0  0  0  0  0  0
    0.0000    0.0000    0.0000 C   0  0  0  0  0  0  0  0  0  0  0  0
    0.0000    0.0000    0.0000 C   0  0  0  0  0  0  0  0  0  0  0  0
    0.0000    0.0000    0.0000 C   0  0  0  0  0  0  0  0  0  0  0  0
    0.0000    0.0000    0.0000 O   0  0  0  0  0  0  0  0  0  0  0  0
    0.0000    0.0000    0.0000 C   0  0  0  0  0  0  0  0  0  0  0  0
    0.0000    0.0000    0.0000 C   0  0  0  0  0  0  0  0  0  0  0  0
    0.0000    0.0000    0.0000 C   0  0  0  0  0  0  0  0  0  0  0  0
    0.0000    0.0000    0.0000 C   0  0  0  0  0  0  0  0  0  0  0  0
    0.0000    0.0000    0.0000 C   0  0  0  0  0  0  0  0  0  0  0  0
    0.0000    0.0000    0.0000 O   0  0  0  0  0  0  0  0  0  0  0  0
    0.0000    0.0000    0.0000 C   0  0  0  0  0  0  0  0  0  0  0  0
  1  2  1  0
  2  3  1  0
  2  4  1  0
  4  5  1  0
  5  6  1  0
  6  7  1  0
  7  8  1  0
  8  9  1  0
  9 10  1  0
 10 11  1  0
 10 12  1  0
 12 13  2  0
 13 14  1  0
 14 15  2  0
 15 16  1  0
 16 17  1  0
 16 18  2  0
 10  5  1  0
 18 12  1  0
M  END
>  <pIC50>  (327) 
7.33

>  <ChEMBL_ID>  (327) 
CHEMBL1400

>  <document_journal>  (327) 
Bioorg. Med. Chem. Lett.

>  <bao_endpoint>  (327) 
BAO_0000190

>  <potential_duplicate>  (327) 
False

>  <uo_units>  (327) 
UO_0000065

>  <canonical_smiles>  (327) 
CN(C)C[C@H]1CCCC[C@]1(O)c2cccc(O)c2

>  <parent_molecule_chembl_id>  (327) 
CHEMBL1400

>  <assay_type>  (327) 
B

>  <src_id>  (327) 
1

>  <ligand_efficiency>  (327) 
{u'le': u'0.56', u'bei': u'29.39', u'sei': u'16.77', u'lle': u'4.85'}

>  <standard_flag>  (327) 
True

>  <molecule_chembl_id>  (327) 
CHEMBL1400

>  <target_organism>  (327) 
Homo sapiens

>  <standard_units>  (327) 
nM

>  <record_id>  (327) 
426089

>  <document_chembl_id>  (327) 
CHEMBL1149431

>  <bao_format>  (327) 
BAO_0000357

>  <data_validity_description>  (327) 
None

>  <activity_id>  (327) 
1679563

>  <standard_type>  (327) 
IC50

>  <target_chembl_id>  (327) 
CHEMBL233

>  <data_validity_comment>  (327) 
None

>  <published_value>  (327) 
47

>  <document_year>  (327) 
2006

>  <target_pref_name>  (327) 
Mu opioid receptor

>  <assay_chembl_id>  (327) 
CHEMBL865906

>  <standard_relation>  (327) 
=

>  <assay_description>  (327) 
Inhibition of mu opioid receptor

>  <published_relation>  (327) 
=

>  <standard_value>  (327) 
47

>  <qudt_units>  (327) 
http://www.openphacts.org/units/Nanomolar

>  <target_tax_id>  (327) 
9606

>  <bao_label>  (327) 
single protein format

>  <published_units>  (327) 
nM

>  <pchembl_value>  (327) 
7.33

>  <published_type>  (327) 
IC50

>  <activity_comment>  (327) 
None

$$$$

     RDKit          

 19 20  0  0  0  0  0  0  0  0999 V2000
    0.0000    0.0000    0.0000 C   0  0  0  0  0  0  0  0  0  0  0  0
    0.0000    0.0000    0.0000 O   0  0  0  0  0  0  0  0  0  0  0  0
    0.0000    0.0000    0.0000 C   0  0  0  0  0  0  0  0  0  0  0  0
    0.0000    0.0000    0.0000 C   0  0  0  0  0  0  0  0  0  0  0  0
    0.0000    0.0000    0.0000 C   0  0  0  0  0  0  0  0  0  0  0  0
    0.0000    0.0000    0.0000 C   0  0  0  0  0  0  0  0  0  0  0  0
    0.0000    0.0000    0.0000 C   0  0  0  0  0  0  0  0  0  0  0  0
    0.0000    0.0000    0.0000 C   0  0  0  0  0  0  0  0  0  0  0  0
    0.0000    0.0000    0.0000 C   0  0  0  0  0  0  0  0  0  0  0  0
    0.0000    0.0000    0.0000 O   0  0  0  0  0  0  0  0  0  0  0  0
    0.0000    0.0000    0.0000 C   0  0  0  0  0  0  0  0  0  0  0  0
    0.0000    0.0000    0.0000 C   0  0  0  0  0  0  0  0  0  0  0  0
    0.0000    0.0000    0.0000 C   0  0  0  0  0  0  0  0  0  0  0  0
    0.0000    0.0000    0.0000 C   0  0  0  0  0  0  0  0  0  0  0  0
    0.0000    0.0000    0.0000 C   0  0  0  0  0  0  0  0  0  0  0  0
    0.0000    0.0000    0.0000 C   0  0  0  0  0  0  0  0  0  0  0  0
    0.0000    0.0000    0.0000 N   0  0  0  0  0  0  0  0  0  0  0  0
    0.0000    0.0000    0.0000 C   0  0  0  0  0  0  0  0  0  0  0  0
    0.0000    0.0000    0.0000 C   0  0  0  0  0  0  0  0  0  0  0  0
  1  2  1  0
  2  3  1  0
  3  4  2  0
  4  5  1  0
  5  6  2  0
  6  7  1  0
  7  8  2  0
  7  9  1  0
  9 10  1  0
  9 11  1  0
 11 12  1  0
 12 13  1  0
 13 14  1  0
 14 15  1  0
 15 16  1  0
 16 17  1  0
 17 18  1  0
 17 19  1  0
  8  3  1  0
 15  9  1  0
M  END
>  <pIC50>  (328) 
5.12

>  <ChEMBL_ID>  (328) 
CHEMBL1237044

>  <document_journal>  (328) 
Bioorg. Med. Chem. Lett.

>  <bao_endpoint>  (328) 
BAO_0000190

>  <potential_duplicate>  (328) 
False

>  <uo_units>  (328) 
UO_0000065

>  <canonical_smiles>  (328) 
COc1cccc(c1)C2(O)CCCCC2CN(C)C

>  <parent_molecule_chembl_id>  (328) 
CHEMBL1237044

>  <assay_type>  (328) 
B

>  <src_id>  (328) 
1

>  <ligand_efficiency>  (328) 
{u'le': u'0.37', u'bei': u'19.44', u'sei': u'15.66', u'lle': u'2.42'}

>  <standard_flag>  (328) 
True

>  <molecule_chembl_id>  (328) 
CHEMBL1237044

>  <target_organism>  (328) 
Homo sapiens

>  <standard_units>  (328) 
nM

>  <record_id>  (328) 
426088

>  <document_chembl_id>  (328) 
CHEMBL1149431

>  <bao_format>  (328) 
BAO_0000357

>  <data_validity_description>  (328) 
None

>  <activity_id>  (328) 
1679564

>  <standard_type>  (328) 
IC50

>  <target_chembl_id>  (328) 
CHEMBL233

>  <data_validity_comment>  (328) 
None

>  <published_value>  (328) 
7600

>  <document_year>  (328) 
2006

>  <target_pref_name>  (328) 
Mu opioid receptor

>  <assay_chembl_id>  (328) 
CHEMBL865906

>  <standard_relation>  (328) 
=

>  <assay_description>  (328) 
Inhibition of mu opioid receptor

>  <published_relation>  (328) 
=

>  <standard_value>  (328) 
7600

>  <qudt_units>  (328) 
http://www.openphacts.org/units/Nanomolar

>  <target_tax_id>  (328) 
9606

>  <bao_label>  (328) 
single protein format

>  <published_units>  (328) 
nM

>  <pchembl_value>  (328) 
5.12

>  <published_type>  (328) 
IC50

>  <activity_comment>  (328) 
None

$$$$

     RDKit          

 29 33  0  0  0  0  0  0  0  0999 V2000
    0.0000    0.0000    0.0000 O   0  0  0  0  0  0  0  0  0  0  0  0
    0.0000    0.0000    0.0000 C   0  0  0  0  0  0  0  0  0  0  0  0
    0.0000    0.0000    0.0000 N   0  0  0  0  0  0  0  0  0  0  0  0
    0.0000    0.0000    0.0000 C   0  0  0  0  0  0  0  0  0  0  0  0
    0.0000    0.0000    0.0000 C   0  0  0  0  0  0  0  0  0  0  0  0
    0.0000    0.0000    0.0000 C   0  0  0  0  0  0  0  0  0  0  0  0
    0.0000    0.0000    0.0000 C   0  0  0  0  0  0  0  0  0  0  0  0
    0.0000    0.0000    0.0000 C   0  0  0  0  0  0  0  0  0  0  0  0
    0.0000    0.0000    0.0000 C   0  0  0  0  0  0  0  0  0  0  0  0
    0.0000    0.0000    0.0000 C   0  0  0  0  0  0  0  0  0  0  0  0
    0.0000    0.0000    0.0000 C   0  0  0  0  0  0  0  0  0  0  0  0
    0.0000    0.0000    0.0000 C   0  0  0  0  0  0  0  0  0  0  0  0
    0.0000    0.0000    0.0000 C   0  0  0  0  0  0  0  0  0  0  0  0
    0.0000    0.0000    0.0000 C   0  0  0  0  0  0  0  0  0  0  0  0
    0.0000    0.0000    0.0000 N   0  0  0  0  0  0  0  0  0  0  0  0
    0.0000    0.0000    0.0000 C   0  0  0  0  0  0  0  0  0  0  0  0
    0.0000    0.0000    0.0000 C   0  0  0  0  0  0  0  0  0  0  0  0
    0.0000    0.0000    0.0000 C   0  0  0  0  0  0  0  0  0  0  0  0
    0.0000    0.0000    0.0000 C   0  0  0  0  0  0  0  0  0  0  0  0
    0.0000    0.0000    0.0000 C   0  0  0  0  0  0  0  0  0  0  0  0
    0.0000    0.0000    0.0000 C   0  0  0  0  0  0  0  0  0  0  0  0
    0.0000    0.0000    0.0000 C   0  0  0  0  0  0  0  0  0  0  0  0
    0.0000    0.0000    0.0000 C   0  0  0  0  0  0  0  0  0  0  0  0
    0.0000    0.0000    0.0000 C   0  0  0  0  0  0  0  0  0  0  0  0
    0.0000    0.0000    0.0000 C   0  0  0  0  0  0  0  0  0  0  0  0
    0.0000    0.0000    0.0000 C   0  0  0  0  0  0  0  0  0  0  0  0
    0.0000    0.0000    0.0000 C   0  0  0  0  0  0  0  0  0  0  0  0
    0.0000    0.0000    0.0000 C   0  0  0  0  0  0  0  0  0  0  0  0
    0.0000    0.0000    0.0000 C   0  0  0  0  0  0  0  0  0  0  0  0
  1  2  2  0
  2  3  1  0
  3  4  1  0
  4  5  1  0
  5  6  1  0
  6  7  2  0
  7  8  1  0
  8  9  2  0
  9 10  1  0
 10 11  2  0
  5 12  1  0
 12 13  1  0
 13 14  1  0
 14 15  1  0
 15 16  1  0
 16 17  1  0
 15 18  1  0
 18 19  1  0
 19 20  1  0
 20 21  1  0
 21 22  1  0
 22 23  1  0
 18 24  1  0
 24 25  2  0
 25 26  1  0
 26 27  2  0
 27 28  1  0
 28 29  2  0
 12  2  1  0
 11  6  1  0
 17 12  1  0
 23 18  1  0
 29 24  1  0
M  END
>  <pIC50>  (329) 
5.19

>  <ChEMBL_ID>  (329) 
CHEMBL377164

>  <document_journal>  (329) 
Bioorg. Med. Chem. Lett.

>  <bao_endpoint>  (329) 
BAO_0000190

>  <potential_duplicate>  (329) 
False

>  <uo_units>  (329) 
UO_0000065

>  <canonical_smiles>  (329) 
O=C1NCC(c2ccccc2)C13CCN(CC3)C4(CCCCC4)c5ccccc5

>  <parent_molecule_chembl_id>  (329) 
CHEMBL377164

>  <assay_type>  (329) 
B

>  <src_id>  (329) 
1

>  <ligand_efficiency>  (329) 
{u'le': u'0.24', u'bei': u'13.17', u'sei': u'15.82', u'lle': u'0.46'}

>  <standard_flag>  (329) 
True

>  <molecule_chembl_id>  (329) 
CHEMBL377164

>  <target_organism>  (329) 
Homo sapiens

>  <standard_units>  (329) 
nM

>  <record_id>  (329) 
527794

>  <document_chembl_id>  (329) 
CHEMBL1145308

>  <bao_format>  (329) 
BAO_0000219

>  <data_validity_description>  (329) 
None

>  <activity_id>  (329) 
1753369

>  <standard_type>  (329) 
IC50

>  <target_chembl_id>  (329) 
CHEMBL233

>  <data_validity_comment>  (329) 
None

>  <published_value>  (329) 
7.64

>  <document_year>  (329) 
2006

>  <target_pref_name>  (329) 
Mu opioid receptor

>  <assay_chembl_id>  (329) 
CHEMBL864838

>  <standard_relation>  (329) 
=

>  <assay_description>  (329) 
Displacement of [3H]naloxone from mu opioid receptor expressed in BHK cells

>  <published_relation>  (329) 
=

>  <standard_value>  (329) 
7640

>  <qudt_units>  (329) 
http://www.openphacts.org/units/Nanomolar

>  <target_tax_id>  (329) 
9606

>  <bao_label>  (329) 
cell-based format

>  <published_units>  (329) 
uM

>  <pchembl_value>  (329) 
5.12

>  <published_type>  (329) 
IC50

>  <activity_comment>  (329) 
None

$$$$

     RDKit          

 30 34  0  0  0  0  0  0  0  0999 V2000
    0.0000    0.0000    0.0000 Cl  0  0  0  0  0  0  0  0  0  0  0  0
    0.0000    0.0000    0.0000 C   0  0  0  0  0  0  0  0  0  0  0  0
    0.0000    0.0000    0.0000 C   0  0  0  0  0  0  0  0  0  0  0  0
    0.0000    0.0000    0.0000 C   0  0  0  0  0  0  0  0  0  0  0  0
    0.0000    0.0000    0.0000 C   0  0  0  0  0  0  0  0  0  0  0  0
    0.0000    0.0000    0.0000 C   0  0  0  0  0  0  0  0  0  0  0  0
    0.0000    0.0000    0.0000 C   0  0  0  0  0  0  0  0  0  0  0  0
    0.0000    0.0000    0.0000 C   0  0  0  0  0  0  0  0  0  0  0  0
    0.0000    0.0000    0.0000 C   0  0  0  0  0  0  0  0  0  0  0  0
    0.0000    0.0000    0.0000 C   0  0  0  0  0  0  0  0  0  0  0  0
    0.0000    0.0000    0.0000 C   0  0  0  0  0  0  0  0  0  0  0  0
    0.0000    0.0000    0.0000 C   0  0  0  0  0  0  0  0  0  0  0  0
    0.0000    0.0000    0.0000 C   0  0  0  0  0  0  0  0  0  0  0  0
    0.0000    0.0000    0.0000 N   0  0  0  0  0  0  0  0  0  0  0  0
    0.0000    0.0000    0.0000 C   0  0  0  0  0  0  0  0  0  0  0  0
    0.0000    0.0000    0.0000 C   0  0  0  0  0  0  0  0  0  0  0  0
    0.0000    0.0000    0.0000 C   0  0  0  0  0  0  0  0  0  0  0  0
    0.0000    0.0000    0.0000 C   0  0  0  0  0  0  0  0  0  0  0  0
    0.0000    0.0000    0.0000 C   0  0  0  0  0  0  0  0  0  0  0  0
    0.0000    0.0000    0.0000 C   0  0  0  0  0  0  0  0  0  0  0  0
    0.0000    0.0000    0.0000 C   0  0  0  0  0  0  0  0  0  0  0  0
    0.0000    0.0000    0.0000 N   0  0  0  0  0  0  0  0  0  0  0  0
    0.0000    0.0000    0.0000 C   0  0  0  0  0  0  0  0  0  0  0  0
    0.0000    0.0000    0.0000 O   0  0  0  0  0  0  0  0  0  0  0  0
    0.0000    0.0000    0.0000 C   0  0  0  0  0  0  0  0  0  0  0  0
    0.0000    0.0000    0.0000 C   0  0  0  0  0  0  0  0  0  0  0  0
    0.0000    0.0000    0.0000 C   0  0  0  0  0  0  0  0  0  0  0  0
    0.0000    0.0000    0.0000 C   0  0  0  0  0  0  0  0  0  0  0  0
    0.0000    0.0000    0.0000 C   0  0  0  0  0  0  0  0  0  0  0  0
    0.0000    0.0000    0.0000 C   0  0  0  0  0  0  0  0  0  0  0  0
  1  2  1  0
  2  3  2  0
  3  4  1  0
  4  5  2  0
  5  6  1  0
  6  7  2  0
  5  8  1  0
  8  9  1  0
  9 10  1  0
 10 11  1  0
 11 12  1  0
 12 13  1  0
  8 14  1  0
 14 15  1  0
 15 16  1  0
 16 17  1  0
 17 18  1  0
 18 19  1  0
 17 20  1  0
 20 21  1  0
 21 22  1  0
 22 23  1  0
 23 24  2  0
 20 25  1  0
 25 26  2  0
 26 27  1  0
 27 28  2  0
 28 29  1  0
 29 30  2  0
  7  2  1  0
 13  8  1  0
 19 14  1  0
 23 17  1  0
 30 25  1  0
M  END
>  <pIC50>  (330) 
5.07

>  <ChEMBL_ID>  (330) 
CHEMBL211422

>  <document_journal>  (330) 
Bioorg. Med. Chem. Lett.

>  <bao_endpoint>  (330) 
BAO_0000190

>  <potential_duplicate>  (330) 
False

>  <uo_units>  (330) 
UO_0000065

>  <canonical_smiles>  (330) 
Clc1ccc(cc1)C2(CCCCC2)N3CCC4(CC3)C(CNC4=O)c5ccccc5

>  <parent_molecule_chembl_id>  (330) 
CHEMBL211422

>  <assay_type>  (330) 
B

>  <src_id>  (330) 
1

>  <ligand_efficiency>  (330) 
{u'le': u'0.21', u'bei': u'11.12', u'sei': u'14.54', u'lle': u'-0.62'}

>  <standard_flag>  (330) 
True

>  <molecule_chembl_id>  (330) 
CHEMBL211422

>  <target_organism>  (330) 
Homo sapiens

>  <standard_units>  (330) 
nM

>  <record_id>  (330) 
527800

>  <document_chembl_id>  (330) 
CHEMBL1145308

>  <bao_format>  (330) 
BAO_0000219

>  <data_validity_description>  (330) 
None

>  <activity_id>  (330) 
1753370

>  <standard_type>  (330) 
IC50

>  <target_chembl_id>  (330) 
CHEMBL233

>  <data_validity_comment>  (330) 
None

>  <published_value>  (330) 
19.8

>  <document_year>  (330) 
2006

>  <target_pref_name>  (330) 
Mu opioid receptor

>  <assay_chembl_id>  (330) 
CHEMBL864838

>  <standard_relation>  (330) 
=

>  <assay_description>  (330) 
Displacement of [3H]naloxone from mu opioid receptor expressed in BHK cells

>  <published_relation>  (330) 
=

>  <standard_value>  (330) 
19800

>  <qudt_units>  (330) 
http://www.openphacts.org/units/Nanomolar

>  <target_tax_id>  (330) 
9606

>  <bao_label>  (330) 
cell-based format

>  <published_units>  (330) 
uM

>  <pchembl_value>  (330) 
4.7

>  <published_type>  (330) 
IC50

>  <activity_comment>  (330) 
None

$$$$

     RDKit          

 30 34  0  0  0  0  0  0  0  0999 V2000
    0.0000    0.0000    0.0000 C   0  0  0  0  0  0  0  0  0  0  0  0
    0.0000    0.0000    0.0000 C   0  0  0  0  0  0  0  0  0  0  0  0
    0.0000    0.0000    0.0000 C   0  0  0  0  0  0  0  0  0  0  0  0
    0.0000    0.0000    0.0000 C   0  0  0  0  0  0  0  0  0  0  0  0
    0.0000    0.0000    0.0000 C   0  0  0  0  0  0  0  0  0  0  0  0
    0.0000    0.0000    0.0000 C   0  0  0  0  0  0  0  0  0  0  0  0
    0.0000    0.0000    0.0000 C   0  0  0  0  0  0  0  0  0  0  0  0
    0.0000    0.0000    0.0000 C   0  0  0  0  0  0  0  0  0  0  0  0
    0.0000    0.0000    0.0000 C   0  0  0  0  0  0  0  0  0  0  0  0
    0.0000    0.0000    0.0000 C   0  0  0  0  0  0  0  0  0  0  0  0
    0.0000    0.0000    0.0000 C   0  0  0  0  0  0  0  0  0  0  0  0
    0.0000    0.0000    0.0000 C   0  0  0  0  0  0  0  0  0  0  0  0
    0.0000    0.0000    0.0000 C   0  0  0  0  0  0  0  0  0  0  0  0
    0.0000    0.0000    0.0000 N   0  0  0  0  0  0  0  0  0  0  0  0
    0.0000    0.0000    0.0000 C   0  0  0  0  0  0  0  0  0  0  0  0
    0.0000    0.0000    0.0000 C   0  0  0  0  0  0  0  0  0  0  0  0
    0.0000    0.0000    0.0000 C   0  0  0  0  0  0  0  0  0  0  0  0
    0.0000    0.0000    0.0000 C   0  0  0  0  0  0  0  0  0  0  0  0
    0.0000    0.0000    0.0000 C   0  0  0  0  0  0  0  0  0  0  0  0
    0.0000    0.0000    0.0000 C   0  0  0  0  0  0  0  0  0  0  0  0
    0.0000    0.0000    0.0000 C   0  0  0  0  0  0  0  0  0  0  0  0
    0.0000    0.0000    0.0000 N   0  0  0  0  0  0  0  0  0  0  0  0
    0.0000    0.0000    0.0000 C   0  0  0  0  0  0  0  0  0  0  0  0
    0.0000    0.0000    0.0000 O   0  0  0  0  0  0  0  0  0  0  0  0
    0.0000    0.0000    0.0000 C   0  0  0  0  0  0  0  0  0  0  0  0
    0.0000    0.0000    0.0000 C   0  0  0  0  0  0  0  0  0  0  0  0
    0.0000    0.0000    0.0000 C   0  0  0  0  0  0  0  0  0  0  0  0
    0.0000    0.0000    0.0000 C   0  0  0  0  0  0  0  0  0  0  0  0
    0.0000    0.0000    0.0000 C   0  0  0  0  0  0  0  0  0  0  0  0
    0.0000    0.0000    0.0000 C   0  0  0  0  0  0  0  0  0  0  0  0
  1  2  1  0
  2  3  2  0
  3  4  1  0
  4  5  2  0
  5  6  1  0
  6  7  2  0
  5  8  1  0
  8  9  1  0
  9 10  1  0
 10 11  1  0
 11 12  1  0
 12 13  1  0
  8 14  1  0
 14 15  1  0
 15 16  1  0
 16 17  1  0
 17 18  1  0
 18 19  1  0
 17 20  1  0
 20 21  1  0
 21 22  1  0
 22 23  1  0
 23 24  2  0
 20 25  1  0
 25 26  2  0
 26 27  1  0
 27 28  2  0
 28 29  1  0
 29 30  2  0
  7  2  1  0
 13  8  1  0
 19 14  1  0
 23 17  1  0
 30 25  1  0
M  END
>  <pIC50>  (331) 
4.98

>  <ChEMBL_ID>  (331) 
CHEMBL213592

>  <document_journal>  (331) 
Bioorg. Med. Chem. Lett.

>  <bao_endpoint>  (331) 
BAO_0000190

>  <potential_duplicate>  (331) 
False

>  <uo_units>  (331) 
UO_0000065

>  <canonical_smiles>  (331) 
Cc1ccc(cc1)C2(CCCCC2)N3CCC4(CC3)C(CNC4=O)c5ccccc5

>  <parent_molecule_chembl_id>  (331) 
CHEMBL213592

>  <assay_type>  (331) 
B

>  <src_id>  (331) 
1

>  <ligand_efficiency>  (331) 
{u'le': u'0.23', u'bei': u'12.52', u'sei': u'15.58', u'lle': u'-0.1'}

>  <standard_flag>  (331) 
True

>  <molecule_chembl_id>  (331) 
CHEMBL213592

>  <target_organism>  (331) 
Homo sapiens

>  <standard_units>  (331) 
nM

>  <record_id>  (331) 
527802

>  <document_chembl_id>  (331) 
CHEMBL1145308

>  <bao_format>  (331) 
BAO_0000219

>  <data_validity_description>  (331) 
None

>  <activity_id>  (331) 
1753372

>  <standard_type>  (331) 
IC50

>  <target_chembl_id>  (331) 
CHEMBL233

>  <data_validity_comment>  (331) 
None

>  <published_value>  (331) 
9.12

>  <document_year>  (331) 
2006

>  <target_pref_name>  (331) 
Mu opioid receptor

>  <assay_chembl_id>  (331) 
CHEMBL864838

>  <standard_relation>  (331) 
=

>  <assay_description>  (331) 
Displacement of [3H]naloxone from mu opioid receptor expressed in BHK cells

>  <published_relation>  (331) 
=

>  <standard_value>  (331) 
9120

>  <qudt_units>  (331) 
http://www.openphacts.org/units/Nanomolar

>  <target_tax_id>  (331) 
9606

>  <bao_label>  (331) 
cell-based format

>  <published_units>  (331) 
uM

>  <pchembl_value>  (331) 
5.04

>  <published_type>  (331) 
IC50

>  <activity_comment>  (331) 
None

$$$$

     RDKit          

 30 34  0  0  0  0  0  0  0  0999 V2000
    0.0000    0.0000    0.0000 F   0  0  0  0  0  0  0  0  0  0  0  0
    0.0000    0.0000    0.0000 C   0  0  0  0  0  0  0  0  0  0  0  0
    0.0000    0.0000    0.0000 C   0  0  0  0  0  0  0  0  0  0  0  0
    0.0000    0.0000    0.0000 C   0  0  0  0  0  0  0  0  0  0  0  0
    0.0000    0.0000    0.0000 C   0  0  0  0  0  0  0  0  0  0  0  0
    0.0000    0.0000    0.0000 C   0  0  0  0  0  0  0  0  0  0  0  0
    0.0000    0.0000    0.0000 C   0  0  0  0  0  0  0  0  0  0  0  0
    0.0000    0.0000    0.0000 C   0  0  0  0  0  0  0  0  0  0  0  0
    0.0000    0.0000    0.0000 C   0  0  0  0  0  0  0  0  0  0  0  0
    0.0000    0.0000    0.0000 C   0  0  0  0  0  0  0  0  0  0  0  0
    0.0000    0.0000    0.0000 C   0  0  0  0  0  0  0  0  0  0  0  0
    0.0000    0.0000    0.0000 C   0  0  0  0  0  0  0  0  0  0  0  0
    0.0000    0.0000    0.0000 C   0  0  0  0  0  0  0  0  0  0  0  0
    0.0000    0.0000    0.0000 N   0  0  0  0  0  0  0  0  0  0  0  0
    0.0000    0.0000    0.0000 C   0  0  0  0  0  0  0  0  0  0  0  0
    0.0000    0.0000    0.0000 C   0  0  0  0  0  0  0  0  0  0  0  0
    0.0000    0.0000    0.0000 C   0  0  0  0  0  0  0  0  0  0  0  0
    0.0000    0.0000    0.0000 C   0  0  0  0  0  0  0  0  0  0  0  0
    0.0000    0.0000    0.0000 C   0  0  0  0  0  0  0  0  0  0  0  0
    0.0000    0.0000    0.0000 C   0  0  0  0  0  0  0  0  0  0  0  0
    0.0000    0.0000    0.0000 C   0  0  0  0  0  0  0  0  0  0  0  0
    0.0000    0.0000    0.0000 N   0  0  0  0  0  0  0  0  0  0  0  0
    0.0000    0.0000    0.0000 C   0  0  0  0  0  0  0  0  0  0  0  0
    0.0000    0.0000    0.0000 O   0  0  0  0  0  0  0  0  0  0  0  0
    0.0000    0.0000    0.0000 C   0  0  0  0  0  0  0  0  0  0  0  0
    0.0000    0.0000    0.0000 C   0  0  0  0  0  0  0  0  0  0  0  0
    0.0000    0.0000    0.0000 C   0  0  0  0  0  0  0  0  0  0  0  0
    0.0000    0.0000    0.0000 C   0  0  0  0  0  0  0  0  0  0  0  0
    0.0000    0.0000    0.0000 C   0  0  0  0  0  0  0  0  0  0  0  0
    0.0000    0.0000    0.0000 C   0  0  0  0  0  0  0  0  0  0  0  0
  1  2  1  0
  2  3  2  0
  3  4  1  0
  4  5  2  0
  5  6  1  0
  6  7  2  0
  6  8  1  0
  8  9  1  0
  9 10  1  0
 10 11  1  0
 11 12  1  0
 12 13  1  0
  8 14  1  0
 14 15  1  0
 15 16  1  0
 16 17  1  0
 17 18  1  0
 18 19  1  0
 17 20  1  0
 20 21  1  0
 21 22  1  0
 22 23  1  0
 23 24  2  0
 20 25  1  0
 25 26  2  0
 26 27  1  0
 27 28  2  0
 28 29  1  0
 29 30  2  0
  7  2  1  0
 13  8  1  0
 19 14  1  0
 23 17  1  0
 30 25  1  0
M  END
>  <pIC50>  (332) 
4.985

>  <ChEMBL_ID>  (332) 
CHEMBL380244

>  <document_journal>  (332) 
Bioorg. Med. Chem. Lett.

>  <bao_endpoint>  (332) 
BAO_0000190

>  <potential_duplicate>  (332) 
False

>  <uo_units>  (332) 
UO_0000065

>  <canonical_smiles>  (332) 
Fc1cccc(c1)C2(CCCCC2)N3CCC4(CC3)C(CNC4=O)c5ccccc5

>  <parent_molecule_chembl_id>  (332) 
CHEMBL380244

>  <assay_type>  (332) 
B

>  <src_id>  (332) 
1

>  <ligand_efficiency>  (332) 
{u'le': u'0.23', u'bei': u'12.53', u'sei': u'15.75', u'lle': u'0.23'}

>  <standard_flag>  (332) 
True

>  <molecule_chembl_id>  (332) 
CHEMBL380244

>  <target_organism>  (332) 
Homo sapiens

>  <standard_units>  (332) 
nM

>  <record_id>  (332) 
527804

>  <document_chembl_id>  (332) 
CHEMBL1145308

>  <bao_format>  (332) 
BAO_0000219

>  <data_validity_description>  (332) 
None

>  <activity_id>  (332) 
1753374

>  <standard_type>  (332) 
IC50

>  <target_chembl_id>  (332) 
CHEMBL233

>  <data_validity_comment>  (332) 
None

>  <published_value>  (332) 
8.04

>  <document_year>  (332) 
2006

>  <target_pref_name>  (332) 
Mu opioid receptor

>  <assay_chembl_id>  (332) 
CHEMBL864838

>  <standard_relation>  (332) 
=

>  <assay_description>  (332) 
Displacement of [3H]naloxone from mu opioid receptor expressed in BHK cells

>  <published_relation>  (332) 
=

>  <standard_value>  (332) 
8040

>  <qudt_units>  (332) 
http://www.openphacts.org/units/Nanomolar

>  <target_tax_id>  (332) 
9606

>  <bao_label>  (332) 
cell-based format

>  <published_units>  (332) 
uM

>  <pchembl_value>  (332) 
5.1

>  <published_type>  (332) 
IC50

>  <activity_comment>  (332) 
None

$$$$

     RDKit          

 31 35  0  0  0  0  0  0  0  0999 V2000
    0.0000    0.0000    0.0000 F   0  0  0  0  0  0  0  0  0  0  0  0
    0.0000    0.0000    0.0000 C   0  0  0  0  0  0  0  0  0  0  0  0
    0.0000    0.0000    0.0000 C   0  0  0  0  0  0  0  0  0  0  0  0
    0.0000    0.0000    0.0000 C   0  0  0  0  0  0  0  0  0  0  0  0
    0.0000    0.0000    0.0000 C   0  0  0  0  0  0  0  0  0  0  0  0
    0.0000    0.0000    0.0000 C   0  0  0  0  0  0  0  0  0  0  0  0
    0.0000    0.0000    0.0000 C   0  0  0  0  0  0  0  0  0  0  0  0
    0.0000    0.0000    0.0000 C   0  0  0  0  0  0  0  0  0  0  0  0
    0.0000    0.0000    0.0000 C   0  0  0  0  0  0  0  0  0  0  0  0
    0.0000    0.0000    0.0000 N   0  0  0  0  0  0  0  0  0  0  0  0
    0.0000    0.0000    0.0000 C   0  0  0  0  0  0  0  0  0  0  0  0
    0.0000    0.0000    0.0000 O   0  0  0  0  0  0  0  0  0  0  0  0
    0.0000    0.0000    0.0000 C   0  0  0  0  0  0  0  0  0  0  0  0
    0.0000    0.0000    0.0000 C   0  0  0  0  0  0  0  0  0  0  0  0
    0.0000    0.0000    0.0000 C   0  0  0  0  0  0  0  0  0  0  0  0
    0.0000    0.0000    0.0000 N   0  0  0  0  0  0  0  0  0  0  0  0
    0.0000    0.0000    0.0000 C   0  0  0  0  0  0  0  0  0  0  0  0
    0.0000    0.0000    0.0000 C   0  0  0  0  0  0  0  0  0  0  0  0
    0.0000    0.0000    0.0000 C   0  0  0  0  0  0  0  0  0  0  0  0
    0.0000    0.0000    0.0000 C   0  0  0  0  0  0  0  0  0  0  0  0
    0.0000    0.0000    0.0000 C   0  0  0  0  0  0  0  0  0  0  0  0
    0.0000    0.0000    0.0000 C   0  0  0  0  0  0  0  0  0  0  0  0
    0.0000    0.0000    0.0000 C   0  0  0  0  0  0  0  0  0  0  0  0
    0.0000    0.0000    0.0000 C   0  0  0  0  0  0  0  0  0  0  0  0
    0.0000    0.0000    0.0000 C   0  0  0  0  0  0  0  0  0  0  0  0
    0.0000    0.0000    0.0000 C   0  0  0  0  0  0  0  0  0  0  0  0
    0.0000    0.0000    0.0000 C   0  0  0  0  0  0  0  0  0  0  0  0
    0.0000    0.0000    0.0000 C   0  0  0  0  0  0  0  0  0  0  0  0
    0.0000    0.0000    0.0000 F   0  0  0  0  0  0  0  0  0  0  0  0
    0.0000    0.0000    0.0000 C   0  0  0  0  0  0  0  0  0  0  0  0
    0.0000    0.0000    0.0000 C   0  0  0  0  0  0  0  0  0  0  0  0
  1  2  1  0
  2  3  2  0
  3  4  1  0
  4  5  2  0
  5  6  1  0
  6  7  2  0
  5  8  1  0
  8  9  1  0
  9 10  1  0
 10 11  1  0
 11 12  2  0
 11 13  1  0
 13 14  1  0
 14 15  1  0
 15 16  1  0
 16 17  1  0
 17 18  1  0
 16 19  1  0
 19 20  1  0
 20 21  1  0
 21 22  1  0
 22 23  1  0
 23 24  1  0
 19 25  1  0
 25 26  2  0
 26 27  1  0
 27 28  2  0
 28 29  1  0
 28 30  1  0
 30 31  2  0
  7  2  1  0
 13  8  1  0
 18 13  1  0
 24 19  1  0
 31 25  1  0
M  END
>  <pIC50>  (333) 
5.12

>  <ChEMBL_ID>  (333) 
CHEMBL377114

>  <document_journal>  (333) 
Bioorg. Med. Chem. Lett.

>  <bao_endpoint>  (333) 
BAO_0000190

>  <potential_duplicate>  (333) 
False

>  <uo_units>  (333) 
UO_0000065

>  <canonical_smiles>  (333) 
Fc1ccc(cc1)C2CNC(=O)C23CCN(CC3)C4(CCCCC4)c5ccc(F)cc5

>  <parent_molecule_chembl_id>  (333) 
CHEMBL377114

>  <assay_type>  (333) 
B

>  <src_id>  (333) 
1

>  <ligand_efficiency>  (333) 
{u'le': u'0.23', u'bei': u'12.03', u'sei': u'15.79', u'lle': u'0.04'}

>  <standard_flag>  (333) 
True

>  <molecule_chembl_id>  (333) 
CHEMBL377114

>  <target_organism>  (333) 
Homo sapiens

>  <standard_units>  (333) 
nM

>  <record_id>  (333) 
527809

>  <document_chembl_id>  (333) 
CHEMBL1145308

>  <bao_format>  (333) 
BAO_0000219

>  <data_validity_description>  (333) 
None

>  <activity_id>  (333) 
1753376

>  <standard_type>  (333) 
IC50

>  <target_chembl_id>  (333) 
CHEMBL233

>  <data_validity_comment>  (333) 
None

>  <published_value>  (333) 
7.8

>  <document_year>  (333) 
2006

>  <target_pref_name>  (333) 
Mu opioid receptor

>  <assay_chembl_id>  (333) 
CHEMBL864838

>  <standard_relation>  (333) 
=

>  <assay_description>  (333) 
Displacement of [3H]naloxone from mu opioid receptor expressed in BHK cells

>  <published_relation>  (333) 
=

>  <standard_value>  (333) 
7800

>  <qudt_units>  (333) 
http://www.openphacts.org/units/Nanomolar

>  <target_tax_id>  (333) 
9606

>  <bao_label>  (333) 
cell-based format

>  <published_units>  (333) 
uM

>  <pchembl_value>  (333) 
5.11

>  <published_type>  (333) 
IC50

>  <activity_comment>  (333) 
None

$$$$

     RDKit          

 31 35  0  0  0  0  0  0  0  0999 V2000
    0.0000    0.0000    0.0000 F   0  0  0  0  0  0  0  0  0  0  0  0
    0.0000    0.0000    0.0000 C   0  0  0  0  0  0  0  0  0  0  0  0
    0.0000    0.0000    0.0000 C   0  0  0  0  0  0  0  0  0  0  0  0
    0.0000    0.0000    0.0000 C   0  0  0  0  0  0  0  0  0  0  0  0
    0.0000    0.0000    0.0000 C   0  0  0  0  0  0  0  0  0  0  0  0
    0.0000    0.0000    0.0000 C   0  0  0  0  0  0  0  0  0  0  0  0
    0.0000    0.0000    0.0000 C   0  0  0  0  0  0  0  0  0  0  0  0
    0.0000    0.0000    0.0000 C   0  0  0  0  0  0  0  0  0  0  0  0
    0.0000    0.0000    0.0000 C   0  0  0  0  0  0  0  0  0  0  0  0
    0.0000    0.0000    0.0000 N   0  0  0  0  0  0  0  0  0  0  0  0
    0.0000    0.0000    0.0000 C   0  0  0  0  0  0  0  0  0  0  0  0
    0.0000    0.0000    0.0000 O   0  0  0  0  0  0  0  0  0  0  0  0
    0.0000    0.0000    0.0000 C   0  0  0  0  0  0  0  0  0  0  0  0
    0.0000    0.0000    0.0000 C   0  0  0  0  0  0  0  0  0  0  0  0
    0.0000    0.0000    0.0000 C   0  0  0  0  0  0  0  0  0  0  0  0
    0.0000    0.0000    0.0000 N   0  0  0  0  0  0  0  0  0  0  0  0
    0.0000    0.0000    0.0000 C   0  0  0  0  0  0  0  0  0  0  0  0
    0.0000    0.0000    0.0000 C   0  0  0  0  0  0  0  0  0  0  0  0
    0.0000    0.0000    0.0000 C   0  0  0  0  0  0  0  0  0  0  0  0
    0.0000    0.0000    0.0000 C   0  0  0  0  0  0  0  0  0  0  0  0
    0.0000    0.0000    0.0000 C   0  0  0  0  0  0  0  0  0  0  0  0
    0.0000    0.0000    0.0000 C   0  0  0  0  0  0  0  0  0  0  0  0
    0.0000    0.0000    0.0000 C   0  0  0  0  0  0  0  0  0  0  0  0
    0.0000    0.0000    0.0000 C   0  0  0  0  0  0  0  0  0  0  0  0
    0.0000    0.0000    0.0000 C   0  0  0  0  0  0  0  0  0  0  0  0
    0.0000    0.0000    0.0000 C   0  0  0  0  0  0  0  0  0  0  0  0
    0.0000    0.0000    0.0000 C   0  0  0  0  0  0  0  0  0  0  0  0
    0.0000    0.0000    0.0000 C   0  0  0  0  0  0  0  0  0  0  0  0
    0.0000    0.0000    0.0000 C   0  0  0  0  0  0  0  0  0  0  0  0
    0.0000    0.0000    0.0000 F   0  0  0  0  0  0  0  0  0  0  0  0
    0.0000    0.0000    0.0000 C   0  0  0  0  0  0  0  0  0  0  0  0
  1  2  1  0
  2  3  2  0
  3  4  1  0
  4  5  2  0
  5  6  1  0
  6  7  2  0
  5  8  1  0
  8  9  1  0
  9 10  1  0
 10 11  1  0
 11 12  2  0
 11 13  1  0
 13 14  1  0
 14 15  1  0
 15 16  1  0
 16 17  1  0
 17 18  1  0
 16 19  1  0
 19 20  1  0
 20 21  1  0
 21 22  1  0
 22 23  1  0
 23 24  1  0
 19 25  1  0
 25 26  2  0
 26 27  1  0
 27 28  2  0
 28 29  1  0
 29 30  1  0
 29 31  2  0
  7  2  1  0
 13  8  1  0
 18 13  1  0
 24 19  1  0
 31 25  1  0
M  END
>  <pIC50>  (334) 
5.14

>  <ChEMBL_ID>  (334) 
CHEMBL436752

>  <document_journal>  (334) 
Bioorg. Med. Chem. Lett.

>  <bao_endpoint>  (334) 
BAO_0000190

>  <potential_duplicate>  (334) 
False

>  <uo_units>  (334) 
UO_0000065

>  <canonical_smiles>  (334) 
Fc1ccc(cc1)C2CNC(=O)C23CCN(CC3)C4(CCCCC4)c5cccc(F)c5

>  <parent_molecule_chembl_id>  (334) 
CHEMBL436752

>  <assay_type>  (334) 
B

>  <src_id>  (334) 
1

>  <ligand_efficiency>  (334) 
{u'le': u'0.23', u'bei': u'12.12', u'sei': u'15.91', u'lle': u'0.07'}

>  <standard_flag>  (334) 
True

>  <molecule_chembl_id>  (334) 
CHEMBL436752

>  <target_organism>  (334) 
Homo sapiens

>  <standard_units>  (334) 
nM

>  <record_id>  (334) 
527814

>  <document_chembl_id>  (334) 
CHEMBL1145308

>  <bao_format>  (334) 
BAO_0000219

>  <data_validity_description>  (334) 
None

>  <activity_id>  (334) 
1753379

>  <standard_type>  (334) 
IC50

>  <target_chembl_id>  (334) 
CHEMBL233

>  <data_validity_comment>  (334) 
None

>  <published_value>  (334) 
7.18

>  <document_year>  (334) 
2006

>  <target_pref_name>  (334) 
Mu opioid receptor

>  <assay_chembl_id>  (334) 
CHEMBL864838

>  <standard_relation>  (334) 
=

>  <assay_description>  (334) 
Displacement of [3H]naloxone from mu opioid receptor expressed in BHK cells

>  <published_relation>  (334) 
=

>  <standard_value>  (334) 
7180

>  <qudt_units>  (334) 
http://www.openphacts.org/units/Nanomolar

>  <target_tax_id>  (334) 
9606

>  <bao_label>  (334) 
cell-based format

>  <published_units>  (334) 
uM

>  <pchembl_value>  (334) 
5.14

>  <published_type>  (334) 
IC50

>  <activity_comment>  (334) 
None

$$$$

     RDKit          

 31 35  0  0  0  0  0  0  0  0999 V2000
    0.0000    0.0000    0.0000 C   0  0  0  0  0  0  0  0  0  0  0  0
    0.0000    0.0000    0.0000 C   0  0  0  0  0  0  0  0  0  0  0  0
    0.0000    0.0000    0.0000 C   0  0  0  0  0  0  0  0  0  0  0  0
    0.0000    0.0000    0.0000 C   0  0  0  0  0  0  0  0  0  0  0  0
    0.0000    0.0000    0.0000 C   0  0  0  0  0  0  0  0  0  0  0  0
    0.0000    0.0000    0.0000 C   0  0  0  0  0  0  0  0  0  0  0  0
    0.0000    0.0000    0.0000 C   0  0  0  0  0  0  0  0  0  0  0  0
    0.0000    0.0000    0.0000 C   0  0  0  0  0  0  0  0  0  0  0  0
    0.0000    0.0000    0.0000 C   0  0  0  0  0  0  0  0  0  0  0  0
    0.0000    0.0000    0.0000 C   0  0  0  0  0  0  0  0  0  0  0  0
    0.0000    0.0000    0.0000 C   0  0  0  0  0  0  0  0  0  0  0  0
    0.0000    0.0000    0.0000 C   0  0  0  0  0  0  0  0  0  0  0  0
    0.0000    0.0000    0.0000 C   0  0  0  0  0  0  0  0  0  0  0  0
    0.0000    0.0000    0.0000 N   0  0  0  0  0  0  0  0  0  0  0  0
    0.0000    0.0000    0.0000 C   0  0  0  0  0  0  0  0  0  0  0  0
    0.0000    0.0000    0.0000 C   0  0  0  0  0  0  0  0  0  0  0  0
    0.0000    0.0000    0.0000 C   0  0  0  0  0  0  0  0  0  0  0  0
    0.0000    0.0000    0.0000 C   0  0  0  0  0  0  0  0  0  0  0  0
    0.0000    0.0000    0.0000 C   0  0  0  0  0  0  0  0  0  0  0  0
    0.0000    0.0000    0.0000 C   0  0  0  0  0  0  0  0  0  0  0  0
    0.0000    0.0000    0.0000 C   0  0  0  0  0  0  0  0  0  0  0  0
    0.0000    0.0000    0.0000 N   0  0  0  0  0  0  0  0  0  0  0  0
    0.0000    0.0000    0.0000 C   0  0  0  0  0  0  0  0  0  0  0  0
    0.0000    0.0000    0.0000 O   0  0  0  0  0  0  0  0  0  0  0  0
    0.0000    0.0000    0.0000 C   0  0  0  0  0  0  0  0  0  0  0  0
    0.0000    0.0000    0.0000 C   0  0  0  0  0  0  0  0  0  0  0  0
    0.0000    0.0000    0.0000 C   0  0  0  0  0  0  0  0  0  0  0  0
    0.0000    0.0000    0.0000 C   0  0  0  0  0  0  0  0  0  0  0  0
    0.0000    0.0000    0.0000 F   0  0  0  0  0  0  0  0  0  0  0  0
    0.0000    0.0000    0.0000 C   0  0  0  0  0  0  0  0  0  0  0  0
    0.0000    0.0000    0.0000 C   0  0  0  0  0  0  0  0  0  0  0  0
  1  2  1  0
  2  3  2  0
  3  4  1  0
  4  5  2  0
  5  6  1  0
  6  7  2  0
  6  8  1  0
  8  9  1  0
  9 10  1  0
 10 11  1  0
 11 12  1  0
 12 13  1  0
  8 14  1  0
 14 15  1  0
 15 16  1  0
 16 17  1  0
 17 18  1  0
 18 19  1  0
 17 20  1  0
 20 21  1  0
 21 22  1  0
 22 23  1  0
 23 24  2  0
 20 25  1  0
 25 26  2  0
 26 27  1  0
 27 28  2  0
 28 29  1  0
 28 30  1  0
 30 31  2  0
  7  2  1  0
 13  8  1  0
 19 14  1  0
 23 17  1  0
 31 25  1  0
M  END
>  <pIC50>  (335) 
4.86

>  <ChEMBL_ID>  (335) 
CHEMBL209380

>  <document_journal>  (335) 
Bioorg. Med. Chem. Lett.

>  <bao_endpoint>  (335) 
BAO_0000190

>  <potential_duplicate>  (335) 
False

>  <uo_units>  (335) 
UO_0000065

>  <canonical_smiles>  (335) 
Cc1cccc(c1)C2(CCCCC2)N3CCC4(CC3)C(CNC4=O)c5ccc(F)cc5

>  <parent_molecule_chembl_id>  (335) 
CHEMBL209380

>  <assay_type>  (335) 
B

>  <src_id>  (335) 
1

>  <ligand_efficiency>  (335) 
{u'le': u'0.22', u'bei': u'12.14', u'sei': u'15.79', u'lle': u'-0.24'}

>  <standard_flag>  (335) 
True

>  <molecule_chembl_id>  (335) 
CHEMBL209380

>  <target_organism>  (335) 
Homo sapiens

>  <standard_units>  (335) 
nM

>  <record_id>  (335) 
527818

>  <document_chembl_id>  (335) 
CHEMBL1145308

>  <bao_format>  (335) 
BAO_0000219

>  <data_validity_description>  (335) 
None

>  <activity_id>  (335) 
1753380

>  <standard_type>  (335) 
IC50

>  <target_chembl_id>  (335) 
CHEMBL233

>  <data_validity_comment>  (335) 
None

>  <published_value>  (335) 
7.83

>  <document_year>  (335) 
2006

>  <target_pref_name>  (335) 
Mu opioid receptor

>  <assay_chembl_id>  (335) 
CHEMBL864838

>  <standard_relation>  (335) 
=

>  <assay_description>  (335) 
Displacement of [3H]naloxone from mu opioid receptor expressed in BHK cells

>  <published_relation>  (335) 
=

>  <standard_value>  (335) 
7830

>  <qudt_units>  (335) 
http://www.openphacts.org/units/Nanomolar

>  <target_tax_id>  (335) 
9606

>  <bao_label>  (335) 
cell-based format

>  <published_units>  (335) 
uM

>  <pchembl_value>  (335) 
5.11

>  <published_type>  (335) 
IC50

>  <activity_comment>  (335) 
None

$$$$

     RDKit          

 31 35  0  0  0  0  0  0  0  0999 V2000
    0.0000    0.0000    0.0000 C   0  0  0  0  0  0  0  0  0  0  0  0
    0.0000    0.0000    0.0000 C   0  0  0  0  0  0  0  0  0  0  0  0
    0.0000    0.0000    0.0000 C   0  0  0  0  0  0  0  0  0  0  0  0
    0.0000    0.0000    0.0000 C   0  0  0  0  0  0  0  0  0  0  0  0
    0.0000    0.0000    0.0000 C   0  0  0  0  0  0  0  0  0  0  0  0
    0.0000    0.0000    0.0000 C   0  0  0  0  0  0  0  0  0  0  0  0
    0.0000    0.0000    0.0000 C   0  0  0  0  0  0  0  0  0  0  0  0
    0.0000    0.0000    0.0000 C   0  0  0  0  0  0  0  0  0  0  0  0
    0.0000    0.0000    0.0000 C   0  0  0  0  0  0  0  0  0  0  0  0
    0.0000    0.0000    0.0000 C   0  0  0  0  0  0  0  0  0  0  0  0
    0.0000    0.0000    0.0000 C   0  0  0  0  0  0  0  0  0  0  0  0
    0.0000    0.0000    0.0000 C   0  0  0  0  0  0  0  0  0  0  0  0
    0.0000    0.0000    0.0000 C   0  0  0  0  0  0  0  0  0  0  0  0
    0.0000    0.0000    0.0000 N   0  0  0  0  0  0  0  0  0  0  0  0
    0.0000    0.0000    0.0000 C   0  0  0  0  0  0  0  0  0  0  0  0
    0.0000    0.0000    0.0000 C   0  0  0  0  0  0  0  0  0  0  0  0
    0.0000    0.0000    0.0000 C   0  0  0  0  0  0  0  0  0  0  0  0
    0.0000    0.0000    0.0000 C   0  0  0  0  0  0  0  0  0  0  0  0
    0.0000    0.0000    0.0000 C   0  0  0  0  0  0  0  0  0  0  0  0
    0.0000    0.0000    0.0000 C   0  0  0  0  0  0  0  0  0  0  0  0
    0.0000    0.0000    0.0000 C   0  0  0  0  0  0  0  0  0  0  0  0
    0.0000    0.0000    0.0000 N   0  0  0  0  0  0  0  0  0  0  0  0
    0.0000    0.0000    0.0000 C   0  0  0  0  0  0  0  0  0  0  0  0
    0.0000    0.0000    0.0000 O   0  0  0  0  0  0  0  0  0  0  0  0
    0.0000    0.0000    0.0000 C   0  0  0  0  0  0  0  0  0  0  0  0
    0.0000    0.0000    0.0000 C   0  0  0  0  0  0  0  0  0  0  0  0
    0.0000    0.0000    0.0000 C   0  0  0  0  0  0  0  0  0  0  0  0
    0.0000    0.0000    0.0000 C   0  0  0  0  0  0  0  0  0  0  0  0
    0.0000    0.0000    0.0000 F   0  0  0  0  0  0  0  0  0  0  0  0
    0.0000    0.0000    0.0000 C   0  0  0  0  0  0  0  0  0  0  0  0
    0.0000    0.0000    0.0000 C   0  0  0  0  0  0  0  0  0  0  0  0
  1  2  1  0
  2  3  2  0
  3  4  1  0
  4  5  2  0
  5  6  1  0
  6  7  2  0
  7  8  1  0
  8  9  1  0
  9 10  1  0
 10 11  1  0
 11 12  1  0
 12 13  1  0
  8 14  1  0
 14 15  1  0
 15 16  1  0
 16 17  1  0
 17 18  1  0
 18 19  1  0
 17 20  1  0
 20 21  1  0
 21 22  1  0
 22 23  1  0
 23 24  2  0
 20 25  1  0
 25 26  2  0
 26 27  1  0
 27 28  2  0
 28 29  1  0
 28 30  1  0
 30 31  2  0
  7  2  1  0
 13  8  1  0
 19 14  1  0
 23 17  1  0
 31 25  1  0
M  END
>  <pIC50>  (336) 
5.41

>  <ChEMBL_ID>  (336) 
CHEMBL378665

>  <document_journal>  (336) 
Bioorg. Med. Chem. Lett.

>  <bao_endpoint>  (336) 
BAO_0000190

>  <potential_duplicate>  (336) 
False

>  <uo_units>  (336) 
UO_0000065

>  <canonical_smiles>  (336) 
Cc1ccccc1C2(CCCCC2)N3CCC4(CC3)C(CNC4=O)c5ccc(F)cc5

>  <parent_molecule_chembl_id>  (336) 
CHEMBL378665

>  <assay_type>  (336) 
B

>  <src_id>  (336) 
1

>  <ligand_efficiency>  (336) 
{u'le': u'0.24', u'bei': u'12.87', u'sei': u'16.74', u'lle': u'0.06'}

>  <standard_flag>  (336) 
True

>  <molecule_chembl_id>  (336) 
CHEMBL378665

>  <target_organism>  (336) 
Homo sapiens

>  <standard_units>  (336) 
nM

>  <record_id>  (336) 
527821

>  <document_chembl_id>  (336) 
CHEMBL1145308

>  <bao_format>  (336) 
BAO_0000219

>  <data_validity_description>  (336) 
None

>  <activity_id>  (336) 
1753382

>  <standard_type>  (336) 
IC50

>  <target_chembl_id>  (336) 
CHEMBL233

>  <data_validity_comment>  (336) 
None

>  <published_value>  (336) 
3.851

>  <document_year>  (336) 
2006

>  <target_pref_name>  (336) 
Mu opioid receptor

>  <assay_chembl_id>  (336) 
CHEMBL864838

>  <standard_relation>  (336) 
=

>  <assay_description>  (336) 
Displacement of [3H]naloxone from mu opioid receptor expressed in BHK cells

>  <published_relation>  (336) 
=

>  <standard_value>  (336) 
3851

>  <qudt_units>  (336) 
http://www.openphacts.org/units/Nanomolar

>  <target_tax_id>  (336) 
9606

>  <bao_label>  (336) 
cell-based format

>  <published_units>  (336) 
uM

>  <pchembl_value>  (336) 
5.41

>  <published_type>  (336) 
IC50

>  <activity_comment>  (336) 
None

$$$$

     RDKit          

 26 29  0  0  0  0  0  0  0  0999 V2000
    0.0000    0.0000    0.0000 C   0  0  0  0  0  0  0  0  0  0  0  0
    0.0000    0.0000    0.0000 C   0  0  0  0  0  0  0  0  0  0  0  0
    0.0000    0.0000    0.0000 C   0  0  0  0  0  0  0  0  0  0  0  0
    0.0000    0.0000    0.0000 C   0  0  0  0  0  0  0  0  0  0  0  0
    0.0000    0.0000    0.0000 C   0  0  0  0  0  0  0  0  0  0  0  0
    0.0000    0.0000    0.0000 N   0  0  0  0  0  0  0  0  0  0  0  0
    0.0000    0.0000    0.0000 C   0  0  0  0  0  0  0  0  0  0  0  0
    0.0000    0.0000    0.0000 O   0  0  0  0  0  0  0  0  0  0  0  0
    0.0000    0.0000    0.0000 C   0  0  0  0  0  0  0  0  0  0  0  0
    0.0000    0.0000    0.0000 C   0  0  0  0  0  0  0  0  0  0  0  0
    0.0000    0.0000    0.0000 C   0  0  0  0  0  0  0  0  0  0  0  0
    0.0000    0.0000    0.0000 N   0  0  0  0  0  0  0  0  0  0  0  0
    0.0000    0.0000    0.0000 C   0  0  0  0  0  0  0  0  0  0  0  0
    0.0000    0.0000    0.0000 C   0  0  0  0  0  0  0  0  0  0  0  0
    0.0000    0.0000    0.0000 C   0  0  0  0  0  0  0  0  0  0  0  0
    0.0000    0.0000    0.0000 C   0  0  0  0  0  0  0  0  0  0  0  0
    0.0000    0.0000    0.0000 C   0  0  0  0  0  0  0  0  0  0  0  0
    0.0000    0.0000    0.0000 C   0  0  0  0  0  0  0  0  0  0  0  0
    0.0000    0.0000    0.0000 C   0  0  0  0  0  0  0  0  0  0  0  0
    0.0000    0.0000    0.0000 C   0  0  0  0  0  0  0  0  0  0  0  0
    0.0000    0.0000    0.0000 C   0  0  0  0  0  0  0  0  0  0  0  0
    0.0000    0.0000    0.0000 C   0  0  0  0  0  0  0  0  0  0  0  0
    0.0000    0.0000    0.0000 C   0  0  0  0  0  0  0  0  0  0  0  0
    0.0000    0.0000    0.0000 C   0  0  0  0  0  0  0  0  0  0  0  0
    0.0000    0.0000    0.0000 C   0  0  0  0  0  0  0  0  0  0  0  0
    0.0000    0.0000    0.0000 C   0  0  0  0  0  0  0  0  0  0  0  0
  1  2  1  0
  2  3  1  0
  3  4  1  0
  4  5  1  0
  5  6  1  0
  6  7  1  0
  7  8  2  0
  7  9  1  0
  9 10  1  0
 10 11  1  0
 11 12  1  0
 12 13  1  0
 13 14  1  0
 12 15  1  0
 15 16  1  0
 16 17  1  0
 17 18  1  0
 18 19  1  0
 19 20  1  0
 15 21  1  0
 21 22  2  0
 22 23  1  0
 23 24  2  0
 24 25  1  0
 25 26  2  0
  9  4  1  0
 14  9  1  0
 20 15  1  0
 26 21  1  0
M  END
>  <pIC50>  (337) 
5.645

>  <ChEMBL_ID>  (337) 
CHEMBL213683

>  <document_journal>  (337) 
Bioorg. Med. Chem. Lett.

>  <bao_endpoint>  (337) 
BAO_0000190

>  <potential_duplicate>  (337) 
False

>  <uo_units>  (337) 
UO_0000065

>  <canonical_smiles>  (337) 
CCCC1CNC(=O)C12CCN(CC2)C3(CCCCC3)c4ccccc4

>  <parent_molecule_chembl_id>  (337) 
CHEMBL213683

>  <assay_type>  (337) 
B

>  <src_id>  (337) 
1

>  <ligand_efficiency>  (337) 
{u'le': u'0.29', u'bei': u'15.68', u'sei': u'17.19', u'lle': u'1.02'}

>  <standard_flag>  (337) 
True

>  <molecule_chembl_id>  (337) 
CHEMBL213683

>  <target_organism>  (337) 
Homo sapiens

>  <standard_units>  (337) 
nM

>  <record_id>  (337) 
527829

>  <document_chembl_id>  (337) 
CHEMBL1145308

>  <bao_format>  (337) 
BAO_0000219

>  <data_validity_description>  (337) 
None

>  <activity_id>  (337) 
1753383

>  <standard_type>  (337) 
IC50

>  <target_chembl_id>  (337) 
CHEMBL233

>  <data_validity_comment>  (337) 
None

>  <published_value>  (337) 
2.76

>  <document_year>  (337) 
2006

>  <target_pref_name>  (337) 
Mu opioid receptor

>  <assay_chembl_id>  (337) 
CHEMBL864838

>  <standard_relation>  (337) 
=

>  <assay_description>  (337) 
Displacement of [3H]naloxone from mu opioid receptor expressed in BHK cells

>  <published_relation>  (337) 
=

>  <standard_value>  (337) 
2760

>  <qudt_units>  (337) 
http://www.openphacts.org/units/Nanomolar

>  <target_tax_id>  (337) 
9606

>  <bao_label>  (337) 
cell-based format

>  <published_units>  (337) 
uM

>  <pchembl_value>  (337) 
5.56

>  <published_type>  (337) 
IC50

>  <activity_comment>  (337) 
None

$$$$

     RDKit          

 27 30  0  0  0  0  0  0  0  0999 V2000
    0.0000    0.0000    0.0000 C   0  0  0  0  0  0  0  0  0  0  0  0
    0.0000    0.0000    0.0000 C   0  0  0  0  0  0  0  0  0  0  0  0
    0.0000    0.0000    0.0000 C   0  0  0  0  0  0  0  0  0  0  0  0
    0.0000    0.0000    0.0000 C   0  0  0  0  0  0  0  0  0  0  0  0
    0.0000    0.0000    0.0000 C   0  0  0  0  0  0  0  0  0  0  0  0
    0.0000    0.0000    0.0000 N   0  0  0  0  0  0  0  0  0  0  0  0
    0.0000    0.0000    0.0000 C   0  0  0  0  0  0  0  0  0  0  0  0
    0.0000    0.0000    0.0000 O   0  0  0  0  0  0  0  0  0  0  0  0
    0.0000    0.0000    0.0000 C   0  0  0  0  0  0  0  0  0  0  0  0
    0.0000    0.0000    0.0000 C   0  0  0  0  0  0  0  0  0  0  0  0
    0.0000    0.0000    0.0000 C   0  0  0  0  0  0  0  0  0  0  0  0
    0.0000    0.0000    0.0000 N   0  0  0  0  0  0  0  0  0  0  0  0
    0.0000    0.0000    0.0000 C   0  0  0  0  0  0  0  0  0  0  0  0
    0.0000    0.0000    0.0000 C   0  0  0  0  0  0  0  0  0  0  0  0
    0.0000    0.0000    0.0000 C   0  0  0  0  0  0  0  0  0  0  0  0
    0.0000    0.0000    0.0000 C   0  0  0  0  0  0  0  0  0  0  0  0
    0.0000    0.0000    0.0000 C   0  0  0  0  0  0  0  0  0  0  0  0
    0.0000    0.0000    0.0000 C   0  0  0  0  0  0  0  0  0  0  0  0
    0.0000    0.0000    0.0000 C   0  0  0  0  0  0  0  0  0  0  0  0
    0.0000    0.0000    0.0000 C   0  0  0  0  0  0  0  0  0  0  0  0
    0.0000    0.0000    0.0000 C   0  0  0  0  0  0  0  0  0  0  0  0
    0.0000    0.0000    0.0000 C   0  0  0  0  0  0  0  0  0  0  0  0
    0.0000    0.0000    0.0000 C   0  0  0  0  0  0  0  0  0  0  0  0
    0.0000    0.0000    0.0000 C   0  0  0  0  0  0  0  0  0  0  0  0
    0.0000    0.0000    0.0000 F   0  0  0  0  0  0  0  0  0  0  0  0
    0.0000    0.0000    0.0000 C   0  0  0  0  0  0  0  0  0  0  0  0
    0.0000    0.0000    0.0000 C   0  0  0  0  0  0  0  0  0  0  0  0
  1  2  1  0
  2  3  1  0
  3  4  1  0
  4  5  1  0
  5  6  1  0
  6  7  1  0
  7  8  2  0
  7  9  1  0
  9 10  1  0
 10 11  1  0
 11 12  1  0
 12 13  1  0
 13 14  1  0
 12 15  1  0
 15 16  1  0
 16 17  1  0
 17 18  1  0
 18 19  1  0
 19 20  1  0
 15 21  1  0
 21 22  2  0
 22 23  1  0
 23 24  2  0
 24 25  1  0
 24 26  1  0
 26 27  2  0
  9  4  1  0
 14  9  1  0
 20 15  1  0
 27 21  1  0
M  END
>  <pIC50>  (338) 
5.52

>  <ChEMBL_ID>  (338) 
CHEMBL214057

>  <document_journal>  (338) 
Bioorg. Med. Chem. Lett.

>  <bao_endpoint>  (338) 
BAO_0000190

>  <potential_duplicate>  (338) 
False

>  <uo_units>  (338) 
UO_0000065

>  <canonical_smiles>  (338) 
CCCC1CNC(=O)C12CCN(CC2)C3(CCCCC3)c4ccc(F)cc4

>  <parent_molecule_chembl_id>  (338) 
CHEMBL214057

>  <assay_type>  (338) 
B

>  <src_id>  (338) 
1

>  <ligand_efficiency>  (338) 
{u'le': u'0.28', u'bei': u'14.81', u'sei': u'17.06', u'lle': u'0.78'}

>  <standard_flag>  (338) 
True

>  <molecule_chembl_id>  (338) 
CHEMBL214057

>  <target_organism>  (338) 
Homo sapiens

>  <standard_units>  (338) 
nM

>  <record_id>  (338) 
527830

>  <document_chembl_id>  (338) 
CHEMBL1145308

>  <bao_format>  (338) 
BAO_0000219

>  <data_validity_description>  (338) 
None

>  <activity_id>  (338) 
1753384

>  <standard_type>  (338) 
IC50

>  <target_chembl_id>  (338) 
CHEMBL233

>  <data_validity_comment>  (338) 
None

>  <published_value>  (338) 
3.03

>  <document_year>  (338) 
2006

>  <target_pref_name>  (338) 
Mu opioid receptor

>  <assay_chembl_id>  (338) 
CHEMBL864838

>  <standard_relation>  (338) 
=

>  <assay_description>  (338) 
Displacement of [3H]naloxone from mu opioid receptor expressed in BHK cells

>  <published_relation>  (338) 
=

>  <standard_value>  (338) 
3030

>  <qudt_units>  (338) 
http://www.openphacts.org/units/Nanomolar

>  <target_tax_id>  (338) 
9606

>  <bao_label>  (338) 
cell-based format

>  <published_units>  (338) 
uM

>  <pchembl_value>  (338) 
5.52

>  <published_type>  (338) 
IC50

>  <activity_comment>  (338) 
None

$$$$

     RDKit          

 26 29  0  0  0  0  0  0  0  0999 V2000
    0.0000    0.0000    0.0000 C   0  0  0  0  0  0  0  0  0  0  0  0
    0.0000    0.0000    0.0000 C   0  0  0  0  0  0  0  0  0  0  0  0
    0.0000    0.0000    0.0000 C   0  0  0  0  0  0  0  0  0  0  0  0
    0.0000    0.0000    0.0000 C   0  0  0  0  0  0  0  0  0  0  0  0
    0.0000    0.0000    0.0000 C   0  0  0  0  0  0  0  0  0  0  0  0
    0.0000    0.0000    0.0000 N   0  0  0  0  0  0  0  0  0  0  0  0
    0.0000    0.0000    0.0000 C   0  0  0  0  0  0  0  0  0  0  0  0
    0.0000    0.0000    0.0000 O   0  0  0  0  0  0  0  0  0  0  0  0
    0.0000    0.0000    0.0000 C   0  0  0  0  0  0  0  0  0  0  0  0
    0.0000    0.0000    0.0000 C   0  0  0  0  0  0  0  0  0  0  0  0
    0.0000    0.0000    0.0000 C   0  0  0  0  0  0  0  0  0  0  0  0
    0.0000    0.0000    0.0000 N   0  0  0  0  0  0  0  0  0  0  0  0
    0.0000    0.0000    0.0000 C   0  0  0  0  0  0  0  0  0  0  0  0
    0.0000    0.0000    0.0000 C   0  0  0  0  0  0  0  0  0  0  0  0
    0.0000    0.0000    0.0000 C   0  0  0  0  0  0  0  0  0  0  0  0
    0.0000    0.0000    0.0000 C   0  0  0  0  0  0  0  0  0  0  0  0
    0.0000    0.0000    0.0000 C   0  0  0  0  0  0  0  0  0  0  0  0
    0.0000    0.0000    0.0000 C   0  0  0  0  0  0  0  0  0  0  0  0
    0.0000    0.0000    0.0000 C   0  0  0  0  0  0  0  0  0  0  0  0
    0.0000    0.0000    0.0000 C   0  0  0  0  0  0  0  0  0  0  0  0
    0.0000    0.0000    0.0000 C   0  0  0  0  0  0  0  0  0  0  0  0
    0.0000    0.0000    0.0000 C   0  0  0  0  0  0  0  0  0  0  0  0
    0.0000    0.0000    0.0000 C   0  0  0  0  0  0  0  0  0  0  0  0
    0.0000    0.0000    0.0000 C   0  0  0  0  0  0  0  0  0  0  0  0
    0.0000    0.0000    0.0000 C   0  0  0  0  0  0  0  0  0  0  0  0
    0.0000    0.0000    0.0000 C   0  0  0  0  0  0  0  0  0  0  0  0
  1  2  1  0
  2  3  1  0
  3  4  1  0
  4  5  1  0
  5  6  1  0
  6  7  1  0
  7  8  2  0
  7  9  1  0
  9 10  1  0
 10 11  1  0
 11 12  1  0
 12 13  1  0
 13 14  1  0
 12 15  1  0
 15 16  1  0
 16 17  1  0
 17 18  1  0
 18 19  1  0
 19 20  1  0
 15 21  1  0
 21 22  2  0
 22 23  1  0
 23 24  2  0
 24 25  1  0
 25 26  2  0
  9  4  1  0
 14  9  1  0
 20 15  1  0
 26 21  1  0
M  END
>  <pIC50>  (339) 
5.56

>  <ChEMBL_ID>  (339) 
CHEMBL540110

>  <document_journal>  (339) 
Bioorg. Med. Chem. Lett.

>  <bao_endpoint>  (339) 
BAO_0000190

>  <potential_duplicate>  (339) 
False

>  <uo_units>  (339) 
UO_0000065

>  <canonical_smiles>  (339) 
Cl.CCCC1CNC(=O)C12CCN(CC2)C3(CCCCC3)c4ccccc4

>  <parent_molecule_chembl_id>  (339) 
CHEMBL213683

>  <assay_type>  (339) 
B

>  <src_id>  (339) 
1

>  <ligand_efficiency>  (339) 
{u'le': u'0.29', u'bei': u'15.69', u'sei': u'17.2', u'lle': u'1.02'}

>  <standard_flag>  (339) 
True

>  <molecule_chembl_id>  (339) 
CHEMBL540110

>  <target_organism>  (339) 
Homo sapiens

>  <standard_units>  (339) 
nM

>  <record_id>  (339) 
527853

>  <document_chembl_id>  (339) 
CHEMBL1145308

>  <bao_format>  (339) 
BAO_0000219

>  <data_validity_description>  (339) 
None

>  <activity_id>  (339) 
1753385

>  <standard_type>  (339) 
IC50

>  <target_chembl_id>  (339) 
CHEMBL233

>  <data_validity_comment>  (339) 
None

>  <published_value>  (339) 
2.73

>  <document_year>  (339) 
2006

>  <target_pref_name>  (339) 
Mu opioid receptor

>  <assay_chembl_id>  (339) 
CHEMBL864838

>  <standard_relation>  (339) 
=

>  <assay_description>  (339) 
Displacement of [3H]naloxone from mu opioid receptor expressed in BHK cells

>  <published_relation>  (339) 
=

>  <standard_value>  (339) 
2730

>  <qudt_units>  (339) 
http://www.openphacts.org/units/Nanomolar

>  <target_tax_id>  (339) 
9606

>  <bao_label>  (339) 
cell-based format

>  <published_units>  (339) 
uM

>  <pchembl_value>  (339) 
5.56

>  <published_type>  (339) 
IC50

>  <activity_comment>  (339) 
None

$$$$

     RDKit          

 29 33  0  0  0  0  0  0  0  0999 V2000
    0.0000    0.0000    0.0000 O   0  0  0  0  0  0  0  0  0  0  0  0
    0.0000    0.0000    0.0000 C   0  0  0  0  0  0  0  0  0  0  0  0
    0.0000    0.0000    0.0000 N   0  0  0  0  0  0  0  0  0  0  0  0
    0.0000    0.0000    0.0000 C   0  0  0  0  0  0  0  0  0  0  0  0
    0.0000    0.0000    0.0000 N   0  0  0  0  0  0  0  0  0  0  0  0
    0.0000    0.0000    0.0000 C   0  0  0  0  0  0  0  0  0  0  0  0
    0.0000    0.0000    0.0000 C   0  0  0  0  0  0  0  0  0  0  0  0
    0.0000    0.0000    0.0000 C   0  0  0  0  0  0  0  0  0  0  0  0
    0.0000    0.0000    0.0000 C   0  0  0  0  0  0  0  0  0  0  0  0
    0.0000    0.0000    0.0000 C   0  0  0  0  0  0  0  0  0  0  0  0
    0.0000    0.0000    0.0000 C   0  0  0  0  0  0  0  0  0  0  0  0
    0.0000    0.0000    0.0000 C   0  0  0  0  0  0  0  0  0  0  0  0
    0.0000    0.0000    0.0000 C   0  0  0  0  0  0  0  0  0  0  0  0
    0.0000    0.0000    0.0000 C   0  0  0  0  0  0  0  0  0  0  0  0
    0.0000    0.0000    0.0000 N   0  0  0  0  0  0  0  0  0  0  0  0
    0.0000    0.0000    0.0000 C   0  0  0  0  0  0  0  0  0  0  0  0
    0.0000    0.0000    0.0000 C   0  0  0  0  0  0  0  0  0  0  0  0
    0.0000    0.0000    0.0000 C   0  0  0  0  0  0  0  0  0  0  0  0
    0.0000    0.0000    0.0000 C   0  0  0  0  0  0  0  0  0  0  0  0
    0.0000    0.0000    0.0000 C   0  0  0  0  0  0  0  0  0  0  0  0
    0.0000    0.0000    0.0000 C   0  0  0  0  0  0  0  0  0  0  0  0
    0.0000    0.0000    0.0000 C   0  0  0  0  0  0  0  0  0  0  0  0
    0.0000    0.0000    0.0000 C   0  0  0  0  0  0  0  0  0  0  0  0
    0.0000    0.0000    0.0000 C   0  0  0  0  0  0  0  0  0  0  0  0
    0.0000    0.0000    0.0000 C   0  0  0  0  0  0  0  0  0  0  0  0
    0.0000    0.0000    0.0000 C   0  0  0  0  0  0  0  0  0  0  0  0
    0.0000    0.0000    0.0000 C   0  0  0  0  0  0  0  0  0  0  0  0
    0.0000    0.0000    0.0000 C   0  0  0  0  0  0  0  0  0  0  0  0
    0.0000    0.0000    0.0000 C   0  0  0  0  0  0  0  0  0  0  0  0
  1  2  2  0
  2  3  1  0
  3  4  1  0
  4  5  1  0
  5  6  1  0
  6  7  2  0
  7  8  1  0
  8  9  2  0
  9 10  1  0
 10 11  2  0
  5 12  1  0
 12 13  1  0
 13 14  1  0
 14 15  1  0
 15 16  1  0
 16 17  1  0
 15 18  1  0
 18 19  1  0
 19 20  1  0
 20 21  1  0
 21 22  1  0
 22 23  1  0
 18 24  1  0
 24 25  2  0
 25 26  1  0
 26 27  2  0
 27 28  1  0
 28 29  2  0
 12  2  1  0
 11  6  1  0
 17 12  1  0
 23 18  1  0
 29 24  1  0
M  END
>  <pIC50>  (340) 
7.82

>  <ChEMBL_ID>  (340) 
CHEMBL403515

>  <document_journal>  (340) 
Bioorg. Med. Chem. Lett.

>  <bao_endpoint>  (340) 
BAO_0000190

>  <potential_duplicate>  (340) 
False

>  <uo_units>  (340) 
UO_0000065

>  <canonical_smiles>  (340) 
O=C1NCN(c2ccccc2)C13CCN(CC3)C4(CCCCC4)c5ccccc5

>  <parent_molecule_chembl_id>  (340) 
CHEMBL403515

>  <assay_type>  (340) 
B

>  <src_id>  (340) 
1

>  <ligand_efficiency>  (340) 
{u'le': u'0.37', u'bei': u'20.09', u'sei': u'21.99', u'lle': u'3.49'}

>  <standard_flag>  (340) 
True

>  <molecule_chembl_id>  (340) 
CHEMBL403515

>  <target_organism>  (340) 
Homo sapiens

>  <standard_units>  (340) 
nM

>  <record_id>  (340) 
527850

>  <document_chembl_id>  (340) 
CHEMBL1145308

>  <bao_format>  (340) 
BAO_0000219

>  <data_validity_description>  (340) 
None

>  <activity_id>  (340) 
1753447

>  <standard_type>  (340) 
IC50

>  <target_chembl_id>  (340) 
CHEMBL233

>  <data_validity_comment>  (340) 
None

>  <published_value>  (340) 
0.015

>  <document_year>  (340) 
2006

>  <target_pref_name>  (340) 
Mu opioid receptor

>  <assay_chembl_id>  (340) 
CHEMBL864838

>  <standard_relation>  (340) 
=

>  <assay_description>  (340) 
Displacement of [3H]naloxone from mu opioid receptor expressed in BHK cells

>  <published_relation>  (340) 
=

>  <standard_value>  (340) 
15

>  <qudt_units>  (340) 
http://www.openphacts.org/units/Nanomolar

>  <target_tax_id>  (340) 
9606

>  <bao_label>  (340) 
cell-based format

>  <published_units>  (340) 
uM

>  <pchembl_value>  (340) 
7.82

>  <published_type>  (340) 
IC50

>  <activity_comment>  (340) 
None

$$$$

     RDKit          

 31 35  0  0  0  0  0  0  0  0999 V2000
    0.0000    0.0000    0.0000 F   0  0  0  0  0  0  0  0  0  0  0  0
    0.0000    0.0000    0.0000 C   0  0  0  0  0  0  0  0  0  0  0  0
    0.0000    0.0000    0.0000 C   0  0  0  0  0  0  0  0  0  0  0  0
    0.0000    0.0000    0.0000 C   0  0  0  0  0  0  0  0  0  0  0  0
    0.0000    0.0000    0.0000 C   0  0  0  0  0  0  0  0  0  0  0  0
    0.0000    0.0000    0.0000 C   0  0  0  0  0  0  0  0  0  0  0  0
    0.0000    0.0000    0.0000 C   0  0  0  0  0  0  0  0  0  0  0  0
    0.0000    0.0000    0.0000 C   0  0  0  0  0  0  0  0  0  0  0  0
    0.0000    0.0000    0.0000 C   0  0  0  0  0  0  0  0  0  0  0  0
    0.0000    0.0000    0.0000 C   0  0  0  0  0  0  0  0  0  0  0  0
    0.0000    0.0000    0.0000 C   0  0  0  0  0  0  0  0  0  0  0  0
    0.0000    0.0000    0.0000 C   0  0  0  0  0  0  0  0  0  0  0  0
    0.0000    0.0000    0.0000 C   0  0  0  0  0  0  0  0  0  0  0  0
    0.0000    0.0000    0.0000 N   0  0  0  0  0  0  0  0  0  0  0  0
    0.0000    0.0000    0.0000 C   0  0  0  0  0  0  0  0  0  0  0  0
    0.0000    0.0000    0.0000 C   0  0  0  0  0  0  0  0  0  0  0  0
    0.0000    0.0000    0.0000 C   0  0  0  0  0  0  0  0  0  0  0  0
    0.0000    0.0000    0.0000 C   0  0  0  0  0  0  0  0  0  0  0  0
    0.0000    0.0000    0.0000 C   0  0  0  0  0  0  0  0  0  0  0  0
    0.0000    0.0000    0.0000 C   0  0  0  0  0  0  0  0  0  0  0  0
    0.0000    0.0000    0.0000 C   0  0  0  0  0  0  0  0  0  0  0  0
    0.0000    0.0000    0.0000 N   0  0  0  0  0  0  0  0  0  0  0  0
    0.0000    0.0000    0.0000 C   0  0  0  0  0  0  0  0  0  0  0  0
    0.0000    0.0000    0.0000 O   0  0  0  0  0  0  0  0  0  0  0  0
    0.0000    0.0000    0.0000 C   0  0  0  0  0  0  0  0  0  0  0  0
    0.0000    0.0000    0.0000 C   0  0  0  0  0  0  0  0  0  0  0  0
    0.0000    0.0000    0.0000 C   0  0  0  0  0  0  0  0  0  0  0  0
    0.0000    0.0000    0.0000 C   0  0  0  0  0  0  0  0  0  0  0  0
    0.0000    0.0000    0.0000 F   0  0  0  0  0  0  0  0  0  0  0  0
    0.0000    0.0000    0.0000 C   0  0  0  0  0  0  0  0  0  0  0  0
    0.0000    0.0000    0.0000 C   0  0  0  0  0  0  0  0  0  0  0  0
  1  2  1  0
  2  3  2  0
  3  4  1  0
  4  5  2  0
  5  6  1  0
  6  7  2  0
  5  8  1  0
  8  9  1  0
  9 10  1  0
 10 11  1  0
 11 12  1  0
 12 13  1  0
 13 14  1  0
 14 15  1  0
 15 16  1  0
 16 17  1  0
 17 18  1  0
 18 19  1  0
 17 20  1  0
 20 21  1  0
 21 22  1  0
 22 23  1  0
 23 24  2  0
 20 25  1  0
 25 26  2  0
 26 27  1  0
 27 28  2  0
 28 29  1  0
 28 30  1  0
 30 31  2  0
  7  2  1  0
 13  8  1  0
 19 14  1  0
 23 17  1  0
 31 25  1  0
M  END
>  <pIC50>  (341) 
5.81

>  <ChEMBL_ID>  (341) 
CHEMBL387193

>  <document_journal>  (341) 
Bioorg. Med. Chem. Lett.

>  <bao_endpoint>  (341) 
BAO_0000190

>  <potential_duplicate>  (341) 
False

>  <uo_units>  (341) 
UO_0000065

>  <canonical_smiles>  (341) 
Fc1ccc(cc1)[C@@H]2CCCC[C@@H]2N3CCC4(CC3)[C@@H](CNC4=O)c5ccc(F)cc5

>  <parent_molecule_chembl_id>  (341) 
CHEMBL387193

>  <assay_type>  (341) 
B

>  <src_id>  (341) 
1

>  <ligand_efficiency>  (341) 
{u'le': u'0.26', u'bei': u'13.68', u'sei': u'17.96', u'lle': u'0.83'}

>  <standard_flag>  (341) 
True

>  <molecule_chembl_id>  (341) 
CHEMBL387193

>  <target_organism>  (341) 
Homo sapiens

>  <standard_units>  (341) 
nM

>  <record_id>  (341) 
526540

>  <document_chembl_id>  (341) 
CHEMBL1138975

>  <bao_format>  (341) 
BAO_0000219

>  <data_validity_description>  (341) 
None

>  <activity_id>  (341) 
1753867

>  <standard_type>  (341) 
IC50

>  <target_chembl_id>  (341) 
CHEMBL233

>  <data_validity_comment>  (341) 
None

>  <published_value>  (341) 
1.55

>  <document_year>  (341) 
2006

>  <target_pref_name>  (341) 
Mu opioid receptor

>  <assay_chembl_id>  (341) 
CHEMBL863601

>  <standard_relation>  (341) 
=

>  <assay_description>  (341) 
Displacement of [3H]naloxone from mu opioid receptor expressed in BHK cells

>  <published_relation>  (341) 
=

>  <standard_value>  (341) 
1550

>  <qudt_units>  (341) 
http://www.openphacts.org/units/Nanomolar

>  <target_tax_id>  (341) 
9606

>  <bao_label>  (341) 
cell-based format

>  <published_units>  (341) 
uM

>  <pchembl_value>  (341) 
5.81

>  <published_type>  (341) 
IC50

>  <activity_comment>  (341) 
None

$$$$

     RDKit          

 31 35  0  0  0  0  0  0  0  0999 V2000
    0.0000    0.0000    0.0000 F   0  0  0  0  0  0  0  0  0  0  0  0
    0.0000    0.0000    0.0000 C   0  0  0  0  0  0  0  0  0  0  0  0
    0.0000    0.0000    0.0000 C   0  0  0  0  0  0  0  0  0  0  0  0
    0.0000    0.0000    0.0000 C   0  0  0  0  0  0  0  0  0  0  0  0
    0.0000    0.0000    0.0000 C   0  0  0  0  0  0  0  0  0  0  0  0
    0.0000    0.0000    0.0000 C   0  0  0  0  0  0  0  0  0  0  0  0
    0.0000    0.0000    0.0000 C   0  0  0  0  0  0  0  0  0  0  0  0
    0.0000    0.0000    0.0000 C   0  0  0  0  0  0  0  0  0  0  0  0
    0.0000    0.0000    0.0000 C   0  0  0  0  0  0  0  0  0  0  0  0
    0.0000    0.0000    0.0000 C   0  0  0  0  0  0  0  0  0  0  0  0
    0.0000    0.0000    0.0000 C   0  0  0  0  0  0  0  0  0  0  0  0
    0.0000    0.0000    0.0000 C   0  0  0  0  0  0  0  0  0  0  0  0
    0.0000    0.0000    0.0000 C   0  0  0  0  0  0  0  0  0  0  0  0
    0.0000    0.0000    0.0000 N   0  0  0  0  0  0  0  0  0  0  0  0
    0.0000    0.0000    0.0000 C   0  0  0  0  0  0  0  0  0  0  0  0
    0.0000    0.0000    0.0000 C   0  0  0  0  0  0  0  0  0  0  0  0
    0.0000    0.0000    0.0000 C   0  0  0  0  0  0  0  0  0  0  0  0
    0.0000    0.0000    0.0000 C   0  0  0  0  0  0  0  0  0  0  0  0
    0.0000    0.0000    0.0000 C   0  0  0  0  0  0  0  0  0  0  0  0
    0.0000    0.0000    0.0000 C   0  0  0  0  0  0  0  0  0  0  0  0
    0.0000    0.0000    0.0000 C   0  0  0  0  0  0  0  0  0  0  0  0
    0.0000    0.0000    0.0000 N   0  0  0  0  0  0  0  0  0  0  0  0
    0.0000    0.0000    0.0000 C   0  0  0  0  0  0  0  0  0  0  0  0
    0.0000    0.0000    0.0000 O   0  0  0  0  0  0  0  0  0  0  0  0
    0.0000    0.0000    0.0000 C   0  0  0  0  0  0  0  0  0  0  0  0
    0.0000    0.0000    0.0000 C   0  0  0  0  0  0  0  0  0  0  0  0
    0.0000    0.0000    0.0000 C   0  0  0  0  0  0  0  0  0  0  0  0
    0.0000    0.0000    0.0000 C   0  0  0  0  0  0  0  0  0  0  0  0
    0.0000    0.0000    0.0000 F   0  0  0  0  0  0  0  0  0  0  0  0
    0.0000    0.0000    0.0000 C   0  0  0  0  0  0  0  0  0  0  0  0
    0.0000    0.0000    0.0000 C   0  0  0  0  0  0  0  0  0  0  0  0
  1  2  1  0
  2  3  2  0
  3  4  1  0
  4  5  2  0
  5  6  1  0
  6  7  2  0
  5  8  1  0
  8  9  1  0
  9 10  1  0
 10 11  1  0
 11 12  1  0
 12 13  1  0
 13 14  1  0
 14 15  1  0
 15 16  1  0
 16 17  1  0
 17 18  1  0
 18 19  1  0
 17 20  1  0
 20 21  1  0
 21 22  1  0
 22 23  1  0
 23 24  2  0
 20 25  1  0
 25 26  2  0
 26 27  1  0
 27 28  2  0
 28 29  1  0
 28 30  1  0
 30 31  2  0
  7  2  1  0
 13  8  1  0
 19 14  1  0
 23 17  1  0
 31 25  1  0
M  END
>  <pIC50>  (342) 
5.17

>  <ChEMBL_ID>  (342) 
CHEMBL378330

>  <document_journal>  (342) 
Bioorg. Med. Chem. Lett.

>  <bao_endpoint>  (342) 
BAO_0000190

>  <potential_duplicate>  (342) 
False

>  <uo_units>  (342) 
UO_0000065

>  <canonical_smiles>  (342) 
Fc1ccc(cc1)[C@H]2CCCC[C@H]2N3CCC4(CC3)[C@H](CNC4=O)c5ccc(F)cc5

>  <parent_molecule_chembl_id>  (342) 
CHEMBL378330

>  <assay_type>  (342) 
B

>  <src_id>  (342) 
1

>  <ligand_efficiency>  (342) 
{u'le': u'0.23', u'bei': u'12.19', u'sei': u'16', u'lle': u'0.19'}

>  <standard_flag>  (342) 
True

>  <molecule_chembl_id>  (342) 
CHEMBL378330

>  <target_organism>  (342) 
Homo sapiens

>  <standard_units>  (342) 
nM

>  <record_id>  (342) 
526542

>  <document_chembl_id>  (342) 
CHEMBL1138975

>  <bao_format>  (342) 
BAO_0000219

>  <data_validity_description>  (342) 
None

>  <activity_id>  (342) 
1753871

>  <standard_type>  (342) 
IC50

>  <target_chembl_id>  (342) 
CHEMBL233

>  <data_validity_comment>  (342) 
None

>  <published_value>  (342) 
6.7

>  <document_year>  (342) 
2006

>  <target_pref_name>  (342) 
Mu opioid receptor

>  <assay_chembl_id>  (342) 
CHEMBL863601

>  <standard_relation>  (342) 
=

>  <assay_description>  (342) 
Displacement of [3H]naloxone from mu opioid receptor expressed in BHK cells

>  <published_relation>  (342) 
=

>  <standard_value>  (342) 
6700

>  <qudt_units>  (342) 
http://www.openphacts.org/units/Nanomolar

>  <target_tax_id>  (342) 
9606

>  <bao_label>  (342) 
cell-based format

>  <published_units>  (342) 
uM

>  <pchembl_value>  (342) 
5.17

>  <published_type>  (342) 
IC50

>  <activity_comment>  (342) 
None

$$$$

     RDKit          

 31 35  0  0  0  0  0  0  0  0999 V2000
    0.0000    0.0000    0.0000 F   0  0  0  0  0  0  0  0  0  0  0  0
    0.0000    0.0000    0.0000 C   0  0  0  0  0  0  0  0  0  0  0  0
    0.0000    0.0000    0.0000 C   0  0  0  0  0  0  0  0  0  0  0  0
    0.0000    0.0000    0.0000 C   0  0  0  0  0  0  0  0  0  0  0  0
    0.0000    0.0000    0.0000 C   0  0  0  0  0  0  0  0  0  0  0  0
    0.0000    0.0000    0.0000 C   0  0  0  0  0  0  0  0  0  0  0  0
    0.0000    0.0000    0.0000 C   0  0  0  0  0  0  0  0  0  0  0  0
    0.0000    0.0000    0.0000 C   0  0  0  0  0  0  0  0  0  0  0  0
    0.0000    0.0000    0.0000 C   0  0  0  0  0  0  0  0  0  0  0  0
    0.0000    0.0000    0.0000 C   0  0  0  0  0  0  0  0  0  0  0  0
    0.0000    0.0000    0.0000 C   0  0  0  0  0  0  0  0  0  0  0  0
    0.0000    0.0000    0.0000 C   0  0  0  0  0  0  0  0  0  0  0  0
    0.0000    0.0000    0.0000 C   0  0  0  0  0  0  0  0  0  0  0  0
    0.0000    0.0000    0.0000 N   0  0  0  0  0  0  0  0  0  0  0  0
    0.0000    0.0000    0.0000 C   0  0  0  0  0  0  0  0  0  0  0  0
    0.0000    0.0000    0.0000 C   0  0  0  0  0  0  0  0  0  0  0  0
    0.0000    0.0000    0.0000 C   0  0  0  0  0  0  0  0  0  0  0  0
    0.0000    0.0000    0.0000 C   0  0  0  0  0  0  0  0  0  0  0  0
    0.0000    0.0000    0.0000 C   0  0  0  0  0  0  0  0  0  0  0  0
    0.0000    0.0000    0.0000 C   0  0  0  0  0  0  0  0  0  0  0  0
    0.0000    0.0000    0.0000 C   0  0  0  0  0  0  0  0  0  0  0  0
    0.0000    0.0000    0.0000 N   0  0  0  0  0  0  0  0  0  0  0  0
    0.0000    0.0000    0.0000 C   0  0  0  0  0  0  0  0  0  0  0  0
    0.0000    0.0000    0.0000 O   0  0  0  0  0  0  0  0  0  0  0  0
    0.0000    0.0000    0.0000 C   0  0  0  0  0  0  0  0  0  0  0  0
    0.0000    0.0000    0.0000 C   0  0  0  0  0  0  0  0  0  0  0  0
    0.0000    0.0000    0.0000 C   0  0  0  0  0  0  0  0  0  0  0  0
    0.0000    0.0000    0.0000 C   0  0  0  0  0  0  0  0  0  0  0  0
    0.0000    0.0000    0.0000 F   0  0  0  0  0  0  0  0  0  0  0  0
    0.0000    0.0000    0.0000 C   0  0  0  0  0  0  0  0  0  0  0  0
    0.0000    0.0000    0.0000 C   0  0  0  0  0  0  0  0  0  0  0  0
  1  2  1  0
  2  3  2  0
  3  4  1  0
  4  5  2  0
  5  6  1  0
  6  7  2  0
  5  8  1  0
  8  9  1  0
  9 10  1  0
 10 11  1  0
 11 12  1  0
 12 13  1  0
 13 14  1  0
 14 15  1  0
 15 16  1  0
 16 17  1  0
 17 18  1  0
 18 19  1  0
 17 20  1  0
 20 21  1  0
 21 22  1  0
 22 23  1  0
 23 24  2  0
 20 25  1  0
 25 26  2  0
 26 27  1  0
 27 28  2  0
 28 29  1  0
 28 30  1  0
 30 31  2  0
  7  2  1  0
 13  8  1  0
 19 14  1  0
 23 17  1  0
 31 25  1  0
M  END
>  <pIC50>  (343) 
5.96

>  <ChEMBL_ID>  (343) 
CHEMBL378686

>  <document_journal>  (343) 
Bioorg. Med. Chem. Lett.

>  <bao_endpoint>  (343) 
BAO_0000190

>  <potential_duplicate>  (343) 
False

>  <uo_units>  (343) 
UO_0000065

>  <canonical_smiles>  (343) 
Fc1ccc(cc1)[C@H]2CCCC[C@H]2N3CCC4(CC3)[C@@H](CNC4=O)c5ccc(F)cc5

>  <parent_molecule_chembl_id>  (343) 
CHEMBL378686

>  <assay_type>  (343) 
B

>  <src_id>  (343) 
1

>  <ligand_efficiency>  (343) 
{u'le': u'0.26', u'bei': u'14.05', u'sei': u'18.44', u'lle': u'0.98'}

>  <standard_flag>  (343) 
True

>  <molecule_chembl_id>  (343) 
CHEMBL378686

>  <target_organism>  (343) 
Homo sapiens

>  <standard_units>  (343) 
nM

>  <record_id>  (343) 
526543

>  <document_chembl_id>  (343) 
CHEMBL1138975

>  <bao_format>  (343) 
BAO_0000219

>  <data_validity_description>  (343) 
None

>  <activity_id>  (343) 
1753874

>  <standard_type>  (343) 
IC50

>  <target_chembl_id>  (343) 
CHEMBL233

>  <data_validity_comment>  (343) 
None

>  <published_value>  (343) 
1.09

>  <document_year>  (343) 
2006

>  <target_pref_name>  (343) 
Mu opioid receptor

>  <assay_chembl_id>  (343) 
CHEMBL863601

>  <standard_relation>  (343) 
=

>  <assay_description>  (343) 
Displacement of [3H]naloxone from mu opioid receptor expressed in BHK cells

>  <published_relation>  (343) 
=

>  <standard_value>  (343) 
1090

>  <qudt_units>  (343) 
http://www.openphacts.org/units/Nanomolar

>  <target_tax_id>  (343) 
9606

>  <bao_label>  (343) 
cell-based format

>  <published_units>  (343) 
uM

>  <pchembl_value>  (343) 
5.96

>  <published_type>  (343) 
IC50

>  <activity_comment>  (343) 
None

$$$$

     RDKit          

 29 33  0  0  0  0  0  0  0  0999 V2000
    0.0000    0.0000    0.0000 O   0  0  0  0  0  0  0  0  0  0  0  0
    0.0000    0.0000    0.0000 C   0  0  0  0  0  0  0  0  0  0  0  0
    0.0000    0.0000    0.0000 N   0  0  0  0  0  0  0  0  0  0  0  0
    0.0000    0.0000    0.0000 C   0  0  0  0  0  0  0  0  0  0  0  0
    0.0000    0.0000    0.0000 C   0  0  0  0  0  0  0  0  0  0  0  0
    0.0000    0.0000    0.0000 C   0  0  0  0  0  0  0  0  0  0  0  0
    0.0000    0.0000    0.0000 C   0  0  0  0  0  0  0  0  0  0  0  0
    0.0000    0.0000    0.0000 C   0  0  0  0  0  0  0  0  0  0  0  0
    0.0000    0.0000    0.0000 C   0  0  0  0  0  0  0  0  0  0  0  0
    0.0000    0.0000    0.0000 C   0  0  0  0  0  0  0  0  0  0  0  0
    0.0000    0.0000    0.0000 C   0  0  0  0  0  0  0  0  0  0  0  0
    0.0000    0.0000    0.0000 C   0  0  0  0  0  0  0  0  0  0  0  0
    0.0000    0.0000    0.0000 C   0  0  0  0  0  0  0  0  0  0  0  0
    0.0000    0.0000    0.0000 C   0  0  0  0  0  0  0  0  0  0  0  0
    0.0000    0.0000    0.0000 N   0  0  0  0  0  0  0  0  0  0  0  0
    0.0000    0.0000    0.0000 C   0  0  0  0  0  0  0  0  0  0  0  0
    0.0000    0.0000    0.0000 C   0  0  0  0  0  0  0  0  0  0  0  0
    0.0000    0.0000    0.0000 C   0  0  0  0  0  0  0  0  0  0  0  0
    0.0000    0.0000    0.0000 C   0  0  0  0  0  0  0  0  0  0  0  0
    0.0000    0.0000    0.0000 C   0  0  0  0  0  0  0  0  0  0  0  0
    0.0000    0.0000    0.0000 C   0  0  0  0  0  0  0  0  0  0  0  0
    0.0000    0.0000    0.0000 C   0  0  0  0  0  0  0  0  0  0  0  0
    0.0000    0.0000    0.0000 C   0  0  0  0  0  0  0  0  0  0  0  0
    0.0000    0.0000    0.0000 C   0  0  0  0  0  0  0  0  0  0  0  0
    0.0000    0.0000    0.0000 C   0  0  0  0  0  0  0  0  0  0  0  0
    0.0000    0.0000    0.0000 C   0  0  0  0  0  0  0  0  0  0  0  0
    0.0000    0.0000    0.0000 C   0  0  0  0  0  0  0  0  0  0  0  0
    0.0000    0.0000    0.0000 C   0  0  0  0  0  0  0  0  0  0  0  0
    0.0000    0.0000    0.0000 C   0  0  0  0  0  0  0  0  0  0  0  0
  1  2  2  0
  2  3  1  0
  3  4  1  0
  4  5  1  0
  5  6  1  0
  6  7  2  0
  7  8  1  0
  8  9  2  0
  9 10  1  0
 10 11  2  0
  5 12  1  0
 12 13  1  0
 13 14  1  0
 14 15  1  0
 15 16  1  0
 16 17  1  0
 15 18  1  0
 18 19  1  0
 19 20  1  0
 20 21  1  0
 21 22  1  0
 22 23  1  0
 23 24  1  0
 24 25  2  0
 25 26  1  0
 26 27  2  0
 27 28  1  0
 28 29  2  0
 12  2  1  0
 11  6  1  0
 17 12  1  0
 23 18  1  0
 29 24  1  0
M  END
>  <pIC50>  (344) 
5.46

>  <ChEMBL_ID>  (344) 
CHEMBL386658

>  <document_journal>  (344) 
Bioorg. Med. Chem. Lett.

>  <bao_endpoint>  (344) 
BAO_0000190

>  <potential_duplicate>  (344) 
False

>  <uo_units>  (344) 
UO_0000065

>  <canonical_smiles>  (344) 
O=C1NC[C@H](c2ccccc2)C13CCN(CC3)[C@H]4CCCC[C@H]4c5ccccc5

>  <parent_molecule_chembl_id>  (344) 
CHEMBL386658

>  <assay_type>  (344) 
B

>  <src_id>  (344) 
1

>  <ligand_efficiency>  (344) 
{u'le': u'0.26', u'bei': u'14.04', u'sei': u'16.87', u'lle': u'0.89'}

>  <standard_flag>  (344) 
True

>  <molecule_chembl_id>  (344) 
CHEMBL386658

>  <target_organism>  (344) 
Homo sapiens

>  <standard_units>  (344) 
nM

>  <record_id>  (344) 
526525

>  <document_chembl_id>  (344) 
CHEMBL1138975

>  <bao_format>  (344) 
BAO_0000219

>  <data_validity_description>  (344) 
None

>  <activity_id>  (344) 
1753893

>  <standard_type>  (344) 
IC50

>  <target_chembl_id>  (344) 
CHEMBL233

>  <data_validity_comment>  (344) 
None

>  <published_value>  (344) 
3.49

>  <document_year>  (344) 
2006

>  <target_pref_name>  (344) 
Mu opioid receptor

>  <assay_chembl_id>  (344) 
CHEMBL863601

>  <standard_relation>  (344) 
=

>  <assay_description>  (344) 
Displacement of [3H]naloxone from mu opioid receptor expressed in BHK cells

>  <published_relation>  (344) 
=

>  <standard_value>  (344) 
3490

>  <qudt_units>  (344) 
http://www.openphacts.org/units/Nanomolar

>  <target_tax_id>  (344) 
9606

>  <bao_label>  (344) 
cell-based format

>  <published_units>  (344) 
uM

>  <pchembl_value>  (344) 
5.46

>  <published_type>  (344) 
IC50

>  <activity_comment>  (344) 
None

$$$$

     RDKit          

 29 33  0  0  0  0  0  0  0  0999 V2000
    0.0000    0.0000    0.0000 O   0  0  0  0  0  0  0  0  0  0  0  0
    0.0000    0.0000    0.0000 C   0  0  0  0  0  0  0  0  0  0  0  0
    0.0000    0.0000    0.0000 N   0  0  0  0  0  0  0  0  0  0  0  0
    0.0000    0.0000    0.0000 C   0  0  0  0  0  0  0  0  0  0  0  0
    0.0000    0.0000    0.0000 C   0  0  0  0  0  0  0  0  0  0  0  0
    0.0000    0.0000    0.0000 C   0  0  0  0  0  0  0  0  0  0  0  0
    0.0000    0.0000    0.0000 C   0  0  0  0  0  0  0  0  0  0  0  0
    0.0000    0.0000    0.0000 C   0  0  0  0  0  0  0  0  0  0  0  0
    0.0000    0.0000    0.0000 C   0  0  0  0  0  0  0  0  0  0  0  0
    0.0000    0.0000    0.0000 C   0  0  0  0  0  0  0  0  0  0  0  0
    0.0000    0.0000    0.0000 C   0  0  0  0  0  0  0  0  0  0  0  0
    0.0000    0.0000    0.0000 C   0  0  0  0  0  0  0  0  0  0  0  0
    0.0000    0.0000    0.0000 C   0  0  0  0  0  0  0  0  0  0  0  0
    0.0000    0.0000    0.0000 C   0  0  0  0  0  0  0  0  0  0  0  0
    0.0000    0.0000    0.0000 N   0  0  0  0  0  0  0  0  0  0  0  0
    0.0000    0.0000    0.0000 C   0  0  0  0  0  0  0  0  0  0  0  0
    0.0000    0.0000    0.0000 C   0  0  0  0  0  0  0  0  0  0  0  0
    0.0000    0.0000    0.0000 C   0  0  0  0  0  0  0  0  0  0  0  0
    0.0000    0.0000    0.0000 C   0  0  0  0  0  0  0  0  0  0  0  0
    0.0000    0.0000    0.0000 C   0  0  0  0  0  0  0  0  0  0  0  0
    0.0000    0.0000    0.0000 C   0  0  0  0  0  0  0  0  0  0  0  0
    0.0000    0.0000    0.0000 C   0  0  0  0  0  0  0  0  0  0  0  0
    0.0000    0.0000    0.0000 C   0  0  0  0  0  0  0  0  0  0  0  0
    0.0000    0.0000    0.0000 C   0  0  0  0  0  0  0  0  0  0  0  0
    0.0000    0.0000    0.0000 C   0  0  0  0  0  0  0  0  0  0  0  0
    0.0000    0.0000    0.0000 C   0  0  0  0  0  0  0  0  0  0  0  0
    0.0000    0.0000    0.0000 C   0  0  0  0  0  0  0  0  0  0  0  0
    0.0000    0.0000    0.0000 C   0  0  0  0  0  0  0  0  0  0  0  0
    0.0000    0.0000    0.0000 C   0  0  0  0  0  0  0  0  0  0  0  0
  1  2  2  0
  2  3  1  0
  3  4  1  0
  4  5  1  0
  5  6  1  0
  6  7  2  0
  7  8  1  0
  8  9  2  0
  9 10  1  0
 10 11  2  0
  5 12  1  0
 12 13  1  0
 13 14  1  0
 14 15  1  0
 15 16  1  0
 16 17  1  0
 15 18  1  0
 18 19  1  0
 19 20  1  0
 20 21  1  0
 21 22  1  0
 22 23  1  0
 23 24  1  0
 24 25  2  0
 25 26  1  0
 26 27  2  0
 27 28  1  0
 28 29  2  0
 12  2  1  0
 11  6  1  0
 17 12  1  0
 23 18  1  0
 29 24  1  0
M  END
>  <pIC50>  (345) 
5.26

>  <ChEMBL_ID>  (345) 
CHEMBL211568

>  <document_journal>  (345) 
Bioorg. Med. Chem. Lett.

>  <bao_endpoint>  (345) 
BAO_0000190

>  <potential_duplicate>  (345) 
False

>  <uo_units>  (345) 
UO_0000065

>  <canonical_smiles>  (345) 
O=C1NC[C@H](c2ccccc2)C13CCN(CC3)[C@@H]4CCCC[C@@H]4c5ccccc5

>  <parent_molecule_chembl_id>  (345) 
CHEMBL211568

>  <assay_type>  (345) 
B

>  <src_id>  (345) 
1

>  <ligand_efficiency>  (345) 
{u'le': u'0.25', u'bei': u'13.54', u'sei': u'16.27', u'lle': u'0.69'}

>  <standard_flag>  (345) 
True

>  <molecule_chembl_id>  (345) 
CHEMBL211568

>  <target_organism>  (345) 
Homo sapiens

>  <standard_units>  (345) 
nM

>  <record_id>  (345) 
526524

>  <document_chembl_id>  (345) 
CHEMBL1138975

>  <bao_format>  (345) 
BAO_0000219

>  <data_validity_description>  (345) 
None

>  <activity_id>  (345) 
1753894

>  <standard_type>  (345) 
IC50

>  <target_chembl_id>  (345) 
CHEMBL233

>  <data_validity_comment>  (345) 
None

>  <published_value>  (345) 
5.48

>  <document_year>  (345) 
2006

>  <target_pref_name>  (345) 
Mu opioid receptor

>  <assay_chembl_id>  (345) 
CHEMBL863601

>  <standard_relation>  (345) 
=

>  <assay_description>  (345) 
Displacement of [3H]naloxone from mu opioid receptor expressed in BHK cells

>  <published_relation>  (345) 
=

>  <standard_value>  (345) 
5480

>  <qudt_units>  (345) 
http://www.openphacts.org/units/Nanomolar

>  <target_tax_id>  (345) 
9606

>  <bao_label>  (345) 
cell-based format

>  <published_units>  (345) 
uM

>  <pchembl_value>  (345) 
5.26

>  <published_type>  (345) 
IC50

>  <activity_comment>  (345) 
None

$$$$

     RDKit          

 29 33  0  0  0  0  0  0  0  0999 V2000
    0.0000    0.0000    0.0000 O   0  0  0  0  0  0  0  0  0  0  0  0
    0.0000    0.0000    0.0000 C   0  0  0  0  0  0  0  0  0  0  0  0
    0.0000    0.0000    0.0000 N   0  0  0  0  0  0  0  0  0  0  0  0
    0.0000    0.0000    0.0000 C   0  0  0  0  0  0  0  0  0  0  0  0
    0.0000    0.0000    0.0000 C   0  0  0  0  0  0  0  0  0  0  0  0
    0.0000    0.0000    0.0000 C   0  0  0  0  0  0  0  0  0  0  0  0
    0.0000    0.0000    0.0000 C   0  0  0  0  0  0  0  0  0  0  0  0
    0.0000    0.0000    0.0000 C   0  0  0  0  0  0  0  0  0  0  0  0
    0.0000    0.0000    0.0000 C   0  0  0  0  0  0  0  0  0  0  0  0
    0.0000    0.0000    0.0000 C   0  0  0  0  0  0  0  0  0  0  0  0
    0.0000    0.0000    0.0000 C   0  0  0  0  0  0  0  0  0  0  0  0
    0.0000    0.0000    0.0000 C   0  0  0  0  0  0  0  0  0  0  0  0
    0.0000    0.0000    0.0000 C   0  0  0  0  0  0  0  0  0  0  0  0
    0.0000    0.0000    0.0000 C   0  0  0  0  0  0  0  0  0  0  0  0
    0.0000    0.0000    0.0000 N   0  0  0  0  0  0  0  0  0  0  0  0
    0.0000    0.0000    0.0000 C   0  0  0  0  0  0  0  0  0  0  0  0
    0.0000    0.0000    0.0000 C   0  0  0  0  0  0  0  0  0  0  0  0
    0.0000    0.0000    0.0000 C   0  0  0  0  0  0  0  0  0  0  0  0
    0.0000    0.0000    0.0000 C   0  0  0  0  0  0  0  0  0  0  0  0
    0.0000    0.0000    0.0000 C   0  0  0  0  0  0  0  0  0  0  0  0
    0.0000    0.0000    0.0000 C   0  0  0  0  0  0  0  0  0  0  0  0
    0.0000    0.0000    0.0000 C   0  0  0  0  0  0  0  0  0  0  0  0
    0.0000    0.0000    0.0000 C   0  0  0  0  0  0  0  0  0  0  0  0
    0.0000    0.0000    0.0000 C   0  0  0  0  0  0  0  0  0  0  0  0
    0.0000    0.0000    0.0000 C   0  0  0  0  0  0  0  0  0  0  0  0
    0.0000    0.0000    0.0000 C   0  0  0  0  0  0  0  0  0  0  0  0
    0.0000    0.0000    0.0000 C   0  0  0  0  0  0  0  0  0  0  0  0
    0.0000    0.0000    0.0000 C   0  0  0  0  0  0  0  0  0  0  0  0
    0.0000    0.0000    0.0000 C   0  0  0  0  0  0  0  0  0  0  0  0
  1  2  2  0
  2  3  1  0
  3  4  1  0
  4  5  1  0
  5  6  1  0
  6  7  2  0
  7  8  1  0
  8  9  2  0
  9 10  1  0
 10 11  2  0
  5 12  1  0
 12 13  1  0
 13 14  1  0
 14 15  1  0
 15 16  1  0
 16 17  1  0
 15 18  1  0
 18 19  1  0
 19 20  1  0
 20 21  1  0
 21 22  1  0
 22 23  1  0
 23 24  1  0
 24 25  2  0
 25 26  1  0
 26 27  2  0
 27 28  1  0
 28 29  2  0
 12  2  1  0
 11  6  1  0
 17 12  1  0
 23 18  1  0
 29 24  1  0
M  END
>  <pIC50>  (346) 
5.41

>  <ChEMBL_ID>  (346) 
CHEMBL214039

>  <document_journal>  (346) 
Bioorg. Med. Chem. Lett.

>  <bao_endpoint>  (346) 
BAO_0000190

>  <potential_duplicate>  (346) 
False

>  <uo_units>  (346) 
UO_0000065

>  <canonical_smiles>  (346) 
O=C1NCC(c2ccccc2)C13CCN(CC3)C4CCCCC4c5ccccc5

>  <parent_molecule_chembl_id>  (346) 
CHEMBL214039

>  <assay_type>  (346) 
B

>  <src_id>  (346) 
1

>  <ligand_efficiency>  (346) 
{u'le': u'0.25', u'bei': u'13.92', u'sei': u'16.72', u'lle': u'0.84'}

>  <standard_flag>  (346) 
True

>  <molecule_chembl_id>  (346) 
CHEMBL214039

>  <target_organism>  (346) 
Homo sapiens

>  <standard_units>  (346) 
nM

>  <record_id>  (346) 
526521

>  <document_chembl_id>  (346) 
CHEMBL1138975

>  <bao_format>  (346) 
BAO_0000219

>  <data_validity_description>  (346) 
None

>  <activity_id>  (346) 
1753901

>  <standard_type>  (346) 
IC50

>  <target_chembl_id>  (346) 
CHEMBL233

>  <data_validity_comment>  (346) 
None

>  <published_value>  (346) 
3.92

>  <document_year>  (346) 
2006

>  <target_pref_name>  (346) 
Mu opioid receptor

>  <assay_chembl_id>  (346) 
CHEMBL863601

>  <standard_relation>  (346) 
=

>  <assay_description>  (346) 
Displacement of [3H]naloxone from mu opioid receptor expressed in BHK cells

>  <published_relation>  (346) 
=

>  <standard_value>  (346) 
3920

>  <qudt_units>  (346) 
http://www.openphacts.org/units/Nanomolar

>  <target_tax_id>  (346) 
9606

>  <bao_label>  (346) 
cell-based format

>  <published_units>  (346) 
uM

>  <pchembl_value>  (346) 
5.41

>  <published_type>  (346) 
IC50

>  <activity_comment>  (346) 
None

$$$$

     RDKit          

 29 33  0  0  0  0  0  0  0  0999 V2000
    0.0000    0.0000    0.0000 O   0  0  0  0  0  0  0  0  0  0  0  0
    0.0000    0.0000    0.0000 C   0  0  0  0  0  0  0  0  0  0  0  0
    0.0000    0.0000    0.0000 N   0  0  0  0  0  0  0  0  0  0  0  0
    0.0000    0.0000    0.0000 C   0  0  0  0  0  0  0  0  0  0  0  0
    0.0000    0.0000    0.0000 N   0  0  0  0  0  0  0  0  0  0  0  0
    0.0000    0.0000    0.0000 C   0  0  0  0  0  0  0  0  0  0  0  0
    0.0000    0.0000    0.0000 C   0  0  0  0  0  0  0  0  0  0  0  0
    0.0000    0.0000    0.0000 C   0  0  0  0  0  0  0  0  0  0  0  0
    0.0000    0.0000    0.0000 C   0  0  0  0  0  0  0  0  0  0  0  0
    0.0000    0.0000    0.0000 C   0  0  0  0  0  0  0  0  0  0  0  0
    0.0000    0.0000    0.0000 C   0  0  0  0  0  0  0  0  0  0  0  0
    0.0000    0.0000    0.0000 C   0  0  0  0  0  0  0  0  0  0  0  0
    0.0000    0.0000    0.0000 C   0  0  0  0  0  0  0  0  0  0  0  0
    0.0000    0.0000    0.0000 C   0  0  0  0  0  0  0  0  0  0  0  0
    0.0000    0.0000    0.0000 N   0  0  0  0  0  0  0  0  0  0  0  0
    0.0000    0.0000    0.0000 C   0  0  0  0  0  0  0  0  0  0  0  0
    0.0000    0.0000    0.0000 C   0  0  0  0  0  0  0  0  0  0  0  0
    0.0000    0.0000    0.0000 C   0  0  0  0  0  0  0  0  0  0  0  0
    0.0000    0.0000    0.0000 C   0  0  0  0  0  0  0  0  0  0  0  0
    0.0000    0.0000    0.0000 C   0  0  0  0  0  0  0  0  0  0  0  0
    0.0000    0.0000    0.0000 C   0  0  0  0  0  0  0  0  0  0  0  0
    0.0000    0.0000    0.0000 C   0  0  0  0  0  0  0  0  0  0  0  0
    0.0000    0.0000    0.0000 C   0  0  0  0  0  0  0  0  0  0  0  0
    0.0000    0.0000    0.0000 C   0  0  0  0  0  0  0  0  0  0  0  0
    0.0000    0.0000    0.0000 C   0  0  0  0  0  0  0  0  0  0  0  0
    0.0000    0.0000    0.0000 C   0  0  0  0  0  0  0  0  0  0  0  0
    0.0000    0.0000    0.0000 C   0  0  0  0  0  0  0  0  0  0  0  0
    0.0000    0.0000    0.0000 C   0  0  0  0  0  0  0  0  0  0  0  0
    0.0000    0.0000    0.0000 C   0  0  0  0  0  0  0  0  0  0  0  0
  1  2  2  0
  2  3  1  0
  3  4  1  0
  4  5  1  0
  5  6  1  0
  6  7  2  0
  7  8  1  0
  8  9  2  0
  9 10  1  0
 10 11  2  0
  5 12  1  0
 12 13  1  0
 13 14  1  0
 14 15  1  0
 15 16  1  0
 16 17  1  0
 15 18  1  0
 18 19  1  0
 19 20  1  0
 20 21  1  0
 21 22  1  0
 22 23  1  0
 23 24  1  0
 24 25  2  0
 25 26  1  0
 26 27  2  0
 27 28  1  0
 28 29  2  0
 12  2  1  0
 11  6  1  0
 17 12  1  0
 23 18  1  0
 29 24  1  0
M  END
>  <pIC50>  (347) 
6.82

>  <ChEMBL_ID>  (347) 
CHEMBL377140

>  <document_journal>  (347) 
Bioorg. Med. Chem. Lett.

>  <bao_endpoint>  (347) 
BAO_0000190

>  <potential_duplicate>  (347) 
False

>  <uo_units>  (347) 
UO_0000065

>  <canonical_smiles>  (347) 
O=C1NCN(c2ccccc2)C13CCN(CC3)C4CCCCC4c5ccccc5

>  <parent_molecule_chembl_id>  (347) 
CHEMBL377140

>  <assay_type>  (347) 
B

>  <src_id>  (347) 
1

>  <ligand_efficiency>  (347) 
{u'le': u'0.32', u'bei': u'17.52', u'sei': u'19.18', u'lle': u'2.58'}

>  <standard_flag>  (347) 
True

>  <molecule_chembl_id>  (347) 
CHEMBL377140

>  <target_organism>  (347) 
Homo sapiens

>  <standard_units>  (347) 
nM

>  <record_id>  (347) 
526298

>  <document_chembl_id>  (347) 
CHEMBL1138974

>  <bao_format>  (347) 
BAO_0000219

>  <data_validity_description>  (347) 
None

>  <activity_id>  (347) 
1754136

>  <standard_type>  (347) 
IC50

>  <target_chembl_id>  (347) 
CHEMBL233

>  <data_validity_comment>  (347) 
None

>  <published_value>  (347) 
0.15

>  <document_year>  (347) 
2006

>  <target_pref_name>  (347) 
Mu opioid receptor

>  <assay_chembl_id>  (347) 
CHEMBL871496

>  <standard_relation>  (347) 
=

>  <assay_description>  (347) 
Displacement of [3H]naloxone from human mu opioid receptor expressed in BHK cells

>  <published_relation>  (347) 
=

>  <standard_value>  (347) 
150

>  <qudt_units>  (347) 
http://www.openphacts.org/units/Nanomolar

>  <target_tax_id>  (347) 
9606

>  <bao_label>  (347) 
cell-based format

>  <published_units>  (347) 
uM

>  <pchembl_value>  (347) 
6.82

>  <published_type>  (347) 
IC50

>  <activity_comment>  (347) 
None

$$$$

     RDKit          

 30 34  0  0  0  0  0  0  0  0999 V2000
    0.0000    0.0000    0.0000 O   0  0  0  0  0  0  0  0  0  0  0  0
    0.0000    0.0000    0.0000 C   0  0  0  0  0  0  0  0  0  0  0  0
    0.0000    0.0000    0.0000 C   0  0  0  0  0  0  0  0  0  0  0  0
    0.0000    0.0000    0.0000 C   0  0  0  0  0  0  0  0  0  0  0  0
    0.0000    0.0000    0.0000 C   0  0  0  0  0  0  0  0  0  0  0  0
    0.0000    0.0000    0.0000 C   0  0  0  0  0  0  0  0  0  0  0  0
    0.0000    0.0000    0.0000 C   0  0  0  0  0  0  0  0  0  0  0  0
    0.0000    0.0000    0.0000 N   0  0  0  0  0  0  0  0  0  0  0  0
    0.0000    0.0000    0.0000 C   0  0  0  0  0  0  0  0  0  0  0  0
    0.0000    0.0000    0.0000 C   0  0  0  0  0  0  0  0  0  0  0  0
    0.0000    0.0000    0.0000 C   0  0  0  0  0  0  0  0  0  0  0  0
    0.0000    0.0000    0.0000 C   0  0  0  0  0  0  0  0  0  0  0  0
    0.0000    0.0000    0.0000 C   0  0  0  0  0  0  0  0  0  0  0  0
    0.0000    0.0000    0.0000 N   0  0  0  0  0  0  0  0  0  0  0  0
    0.0000    0.0000    0.0000 C   0  0  0  0  0  0  0  0  0  0  0  0
    0.0000    0.0000    0.0000 N   0  0  0  0  0  0  0  0  0  0  0  0
    0.0000    0.0000    0.0000 C   0  0  0  0  0  0  0  0  0  0  0  0
    0.0000    0.0000    0.0000 O   0  0  0  0  0  0  0  0  0  0  0  0
    0.0000    0.0000    0.0000 C   0  0  0  0  0  0  0  0  0  0  0  0
    0.0000    0.0000    0.0000 C   0  0  0  0  0  0  0  0  0  0  0  0
    0.0000    0.0000    0.0000 C   0  0  0  0  0  0  0  0  0  0  0  0
    0.0000    0.0000    0.0000 C   0  0  0  0  0  0  0  0  0  0  0  0
    0.0000    0.0000    0.0000 C   0  0  0  0  0  0  0  0  0  0  0  0
    0.0000    0.0000    0.0000 C   0  0  0  0  0  0  0  0  0  0  0  0
    0.0000    0.0000    0.0000 C   0  0  0  0  0  0  0  0  0  0  0  0
    0.0000    0.0000    0.0000 C   0  0  0  0  0  0  0  0  0  0  0  0
    0.0000    0.0000    0.0000 C   0  0  0  0  0  0  0  0  0  0  0  0
    0.0000    0.0000    0.0000 C   0  0  0  0  0  0  0  0  0  0  0  0
    0.0000    0.0000    0.0000 C   0  0  0  0  0  0  0  0  0  0  0  0
    0.0000    0.0000    0.0000 C   0  0  0  0  0  0  0  0  0  0  0  0
  1  2  1  0
  2  3  1  0
  3  4  1  0
  4  5  1  0
  5  6  1  0
  6  7  1  0
  7  8  1  0
  8  9  1  0
  9 10  1  0
 10 11  1  0
 11 12  1  0
 12 13  1  0
 11 14  1  0
 14 15  1  0
 15 16  1  0
 16 17  1  0
 17 18  2  0
 14 19  1  0
 19 20  2  0
 20 21  1  0
 21 22  2  0
 22 23  1  0
 23 24  2  0
  2 25  1  0
 25 26  2  0
 26 27  1  0
 27 28  2  0
 28 29  1  0
 29 30  2  0
  7  2  1  0
 13  8  1  0
 17 11  1  0
 24 19  1  0
 30 25  1  0
M  END
>  <pIC50>  (348) 
5.57

>  <ChEMBL_ID>  (348) 
CHEMBL211373

>  <document_journal>  (348) 
Bioorg. Med. Chem. Lett.

>  <bao_endpoint>  (348) 
BAO_0000190

>  <potential_duplicate>  (348) 
False

>  <uo_units>  (348) 
UO_0000065

>  <canonical_smiles>  (348) 
OC1(CCCCC1N2CCC3(CC2)N(CNC3=O)c4ccccc4)c5ccccc5

>  <parent_molecule_chembl_id>  (348) 
CHEMBL211373

>  <assay_type>  (348) 
B

>  <src_id>  (348) 
1

>  <ligand_efficiency>  (348) 
{u'le': u'0.25', u'bei': u'13.73', u'sei': u'9.98', u'lle': u'2.21'}

>  <standard_flag>  (348) 
True

>  <molecule_chembl_id>  (348) 
CHEMBL211373

>  <target_organism>  (348) 
Homo sapiens

>  <standard_units>  (348) 
nM

>  <record_id>  (348) 
526299

>  <document_chembl_id>  (348) 
CHEMBL1138974

>  <bao_format>  (348) 
BAO_0000219

>  <data_validity_description>  (348) 
None

>  <activity_id>  (348) 
1754154

>  <standard_type>  (348) 
IC50

>  <target_chembl_id>  (348) 
CHEMBL233

>  <data_validity_comment>  (348) 
None

>  <published_value>  (348) 
2.7

>  <document_year>  (348) 
2006

>  <target_pref_name>  (348) 
Mu opioid receptor

>  <assay_chembl_id>  (348) 
CHEMBL871496

>  <standard_relation>  (348) 
=

>  <assay_description>  (348) 
Displacement of [3H]naloxone from human mu opioid receptor expressed in BHK cells

>  <published_relation>  (348) 
=

>  <standard_value>  (348) 
2700

>  <qudt_units>  (348) 
http://www.openphacts.org/units/Nanomolar

>  <target_tax_id>  (348) 
9606

>  <bao_label>  (348) 
cell-based format

>  <published_units>  (348) 
uM

>  <pchembl_value>  (348) 
5.57

>  <published_type>  (348) 
IC50

>  <activity_comment>  (348) 
None

$$$$

     RDKit          

 29 33  0  0  0  0  0  0  0  0999 V2000
    0.0000    0.0000    0.0000 O   0  0  0  0  0  0  0  0  0  0  0  0
    0.0000    0.0000    0.0000 C   0  0  0  0  0  0  0  0  0  0  0  0
    0.0000    0.0000    0.0000 N   0  0  0  0  0  0  0  0  0  0  0  0
    0.0000    0.0000    0.0000 C   0  0  0  0  0  0  0  0  0  0  0  0
    0.0000    0.0000    0.0000 C   0  0  0  0  0  0  0  0  0  0  0  0
    0.0000    0.0000    0.0000 C   0  0  0  0  0  0  0  0  0  0  0  0
    0.0000    0.0000    0.0000 C   0  0  0  0  0  0  0  0  0  0  0  0
    0.0000    0.0000    0.0000 C   0  0  0  0  0  0  0  0  0  0  0  0
    0.0000    0.0000    0.0000 C   0  0  0  0  0  0  0  0  0  0  0  0
    0.0000    0.0000    0.0000 C   0  0  0  0  0  0  0  0  0  0  0  0
    0.0000    0.0000    0.0000 C   0  0  0  0  0  0  0  0  0  0  0  0
    0.0000    0.0000    0.0000 C   0  0  0  0  0  0  0  0  0  0  0  0
    0.0000    0.0000    0.0000 C   0  0  0  0  0  0  0  0  0  0  0  0
    0.0000    0.0000    0.0000 C   0  0  0  0  0  0  0  0  0  0  0  0
    0.0000    0.0000    0.0000 N   0  0  0  0  0  0  0  0  0  0  0  0
    0.0000    0.0000    0.0000 C   0  0  0  0  0  0  0  0  0  0  0  0
    0.0000    0.0000    0.0000 C   0  0  0  0  0  0  0  0  0  0  0  0
    0.0000    0.0000    0.0000 C   0  0  0  0  0  0  0  0  0  0  0  0
    0.0000    0.0000    0.0000 C   0  0  0  0  0  0  0  0  0  0  0  0
    0.0000    0.0000    0.0000 C   0  0  0  0  0  0  0  0  0  0  0  0
    0.0000    0.0000    0.0000 C   0  0  0  0  0  0  0  0  0  0  0  0
    0.0000    0.0000    0.0000 C   0  0  0  0  0  0  0  0  0  0  0  0
    0.0000    0.0000    0.0000 C   0  0  0  0  0  0  0  0  0  0  0  0
    0.0000    0.0000    0.0000 C   0  0  0  0  0  0  0  0  0  0  0  0
    0.0000    0.0000    0.0000 C   0  0  0  0  0  0  0  0  0  0  0  0
    0.0000    0.0000    0.0000 C   0  0  0  0  0  0  0  0  0  0  0  0
    0.0000    0.0000    0.0000 C   0  0  0  0  0  0  0  0  0  0  0  0
    0.0000    0.0000    0.0000 C   0  0  0  0  0  0  0  0  0  0  0  0
    0.0000    0.0000    0.0000 C   0  0  0  0  0  0  0  0  0  0  0  0
  1  2  2  0
  2  3  1  0
  3  4  1  0
  4  5  1  0
  5  6  1  0
  6  7  2  0
  7  8  1  0
  8  9  2  0
  9 10  1  0
 10 11  2  0
  5 12  1  0
 12 13  1  0
 13 14  1  0
 14 15  1  0
 15 16  1  0
 16 17  1  0
 15 18  1  0
 18 19  1  0
 19 20  1  0
 20 21  1  0
 21 22  1  0
 22 23  1  0
 23 24  1  0
 24 25  2  0
 25 26  1  0
 26 27  2  0
 27 28  1  0
 28 29  2  0
 12  2  1  0
 11  6  1  0
 17 12  1  0
 23 18  1  0
 29 24  1  0
M  END
>  <pIC50>  (349) 
5.41

>  <ChEMBL_ID>  (349) 
CHEMBL2096837

>  <document_journal>  (349) 
Bioorg. Med. Chem. Lett.

>  <bao_endpoint>  (349) 
BAO_0000190

>  <potential_duplicate>  (349) 
False

>  <uo_units>  (349) 
UO_0000065

>  <canonical_smiles>  (349) 
O=C1NC[C@@H](c2ccccc2)C13CCN(CC3)C4CCCCC4c5ccccc5

>  <parent_molecule_chembl_id>  (349) 
CHEMBL2096837

>  <assay_type>  (349) 
B

>  <src_id>  (349) 
1

>  <ligand_efficiency>  (349) 
{u'le': u'0.25', u'bei': u'13.92', u'sei': u'16.72', u'lle': u'0.84'}

>  <standard_flag>  (349) 
True

>  <molecule_chembl_id>  (349) 
CHEMBL2096837

>  <target_organism>  (349) 
Homo sapiens

>  <standard_units>  (349) 
nM

>  <record_id>  (349) 
526300

>  <document_chembl_id>  (349) 
CHEMBL1138974

>  <bao_format>  (349) 
BAO_0000219

>  <data_validity_description>  (349) 
None

>  <activity_id>  (349) 
1754157

>  <standard_type>  (349) 
IC50

>  <target_chembl_id>  (349) 
CHEMBL233

>  <data_validity_comment>  (349) 
None

>  <published_value>  (349) 
3.92

>  <document_year>  (349) 
2006

>  <target_pref_name>  (349) 
Mu opioid receptor

>  <assay_chembl_id>  (349) 
CHEMBL871496

>  <standard_relation>  (349) 
=

>  <assay_description>  (349) 
Displacement of [3H]naloxone from human mu opioid receptor expressed in BHK cells

>  <published_relation>  (349) 
=

>  <standard_value>  (349) 
3920

>  <qudt_units>  (349) 
http://www.openphacts.org/units/Nanomolar

>  <target_tax_id>  (349) 
9606

>  <bao_label>  (349) 
cell-based format

>  <published_units>  (349) 
uM

>  <pchembl_value>  (349) 
5.41

>  <published_type>  (349) 
IC50

>  <activity_comment>  (349) 
None

$$$$

     RDKit          

 31 35  0  0  0  0  0  0  0  0999 V2000
    0.0000    0.0000    0.0000 O   0  0  0  0  0  0  0  0  0  0  0  0
    0.0000    0.0000    0.0000 C   0  0  0  0  0  0  0  0  0  0  0  0
    0.0000    0.0000    0.0000 C   0  0  0  0  0  0  0  0  0  0  0  0
    0.0000    0.0000    0.0000 C   0  0  0  0  0  0  0  0  0  0  0  0
    0.0000    0.0000    0.0000 C   0  0  0  0  0  0  0  0  0  0  0  0
    0.0000    0.0000    0.0000 C   0  0  0  0  0  0  0  0  0  0  0  0
    0.0000    0.0000    0.0000 C   0  0  0  0  0  0  0  0  0  0  0  0
    0.0000    0.0000    0.0000 N   0  0  0  0  0  0  0  0  0  0  0  0
    0.0000    0.0000    0.0000 C   0  0  0  0  0  0  0  0  0  0  0  0
    0.0000    0.0000    0.0000 C   0  0  0  0  0  0  0  0  0  0  0  0
    0.0000    0.0000    0.0000 C   0  0  0  0  0  0  0  0  0  0  0  0
    0.0000    0.0000    0.0000 C   0  0  0  0  0  0  0  0  0  0  0  0
    0.0000    0.0000    0.0000 C   0  0  0  0  0  0  0  0  0  0  0  0
    0.0000    0.0000    0.0000 C   0  0  0  0  0  0  0  0  0  0  0  0
    0.0000    0.0000    0.0000 C   0  0  0  0  0  0  0  0  0  0  0  0
    0.0000    0.0000    0.0000 N   0  0  0  0  0  0  0  0  0  0  0  0
    0.0000    0.0000    0.0000 C   0  0  0  0  0  0  0  0  0  0  0  0
    0.0000    0.0000    0.0000 O   0  0  0  0  0  0  0  0  0  0  0  0
    0.0000    0.0000    0.0000 C   0  0  0  0  0  0  0  0  0  0  0  0
    0.0000    0.0000    0.0000 C   0  0  0  0  0  0  0  0  0  0  0  0
    0.0000    0.0000    0.0000 C   0  0  0  0  0  0  0  0  0  0  0  0
    0.0000    0.0000    0.0000 C   0  0  0  0  0  0  0  0  0  0  0  0
    0.0000    0.0000    0.0000 C   0  0  0  0  0  0  0  0  0  0  0  0
    0.0000    0.0000    0.0000 C   0  0  0  0  0  0  0  0  0  0  0  0
    0.0000    0.0000    0.0000 C   0  0  0  0  0  0  0  0  0  0  0  0
    0.0000    0.0000    0.0000 C   0  0  0  0  0  0  0  0  0  0  0  0
    0.0000    0.0000    0.0000 C   0  0  0  0  0  0  0  0  0  0  0  0
    0.0000    0.0000    0.0000 C   0  0  0  0  0  0  0  0  0  0  0  0
    0.0000    0.0000    0.0000 F   0  0  0  0  0  0  0  0  0  0  0  0
    0.0000    0.0000    0.0000 C   0  0  0  0  0  0  0  0  0  0  0  0
    0.0000    0.0000    0.0000 C   0  0  0  0  0  0  0  0  0  0  0  0
  1  2  1  0
  2  3  1  0
  3  4  1  0
  4  5  1  0
  5  6  1  0
  6  7  1  0
  7  8  1  0
  8  9  1  0
  9 10  1  0
 10 11  1  0
 11 12  1  0
 12 13  1  0
 11 14  1  0
 14 15  1  0
 15 16  1  0
 16 17  1  0
 17 18  2  0
 14 19  1  0
 19 20  2  0
 20 21  1  0
 21 22  2  0
 22 23  1  0
 23 24  2  0
  2 25  1  0
 25 26  2  0
 26 27  1  0
 27 28  2  0
 28 29  1  0
 28 30  1  0
 30 31  2  0
  7  2  1  0
 13  8  1  0
 17 11  1  0
 24 19  1  0
 31 25  1  0
M  END
>  <pIC50>  (350) 
4.62

>  <ChEMBL_ID>  (350) 
CHEMBL214122

>  <document_journal>  (350) 
Bioorg. Med. Chem. Lett.

>  <bao_endpoint>  (350) 
BAO_0000190

>  <potential_duplicate>  (350) 
False

>  <uo_units>  (350) 
UO_0000065

>  <canonical_smiles>  (350) 
OC1(CCCCC1N2CCC3(CC2)C(CNC3=O)c4ccccc4)c5ccc(F)cc5

>  <parent_molecule_chembl_id>  (350) 
CHEMBL214122

>  <assay_type>  (350) 
B

>  <src_id>  (350) 
1

>  <ligand_efficiency>  (350) 
{u'le': u'0.2', u'bei': u'10.93', u'sei': u'8.79', u'lle': u'0.73'}

>  <standard_flag>  (350) 
True

>  <molecule_chembl_id>  (350) 
CHEMBL214122

>  <target_organism>  (350) 
Homo sapiens

>  <standard_units>  (350) 
nM

>  <record_id>  (350) 
526313

>  <document_chembl_id>  (350) 
CHEMBL1138974

>  <bao_format>  (350) 
BAO_0000219

>  <data_validity_description>  (350) 
None

>  <activity_id>  (350) 
1754158

>  <standard_type>  (350) 
IC50

>  <target_chembl_id>  (350) 
CHEMBL233

>  <data_validity_comment>  (350) 
None

>  <published_value>  (350) 
24

>  <document_year>  (350) 
2006

>  <target_pref_name>  (350) 
Mu opioid receptor

>  <assay_chembl_id>  (350) 
CHEMBL871496

>  <standard_relation>  (350) 
=

>  <assay_description>  (350) 
Displacement of [3H]naloxone from human mu opioid receptor expressed in BHK cells

>  <published_relation>  (350) 
=

>  <standard_value>  (350) 
24000

>  <qudt_units>  (350) 
http://www.openphacts.org/units/Nanomolar

>  <target_tax_id>  (350) 
9606

>  <bao_label>  (350) 
cell-based format

>  <published_units>  (350) 
uM

>  <pchembl_value>  (350) 
4.62

>  <published_type>  (350) 
IC50

>  <activity_comment>  (350) 
None

$$$$

     RDKit          

 54 61  0  0  0  0  0  0  0  0999 V2000
    0.0000    0.0000    0.0000 C   0  0  0  0  0  0  0  0  0  0  0  0
    0.0000    0.0000    0.0000 C   0  0  0  0  0  0  0  0  0  0  0  0
    0.0000    0.0000    0.0000 C   0  0  0  0  0  0  0  0  0  0  0  0
    0.0000    0.0000    0.0000 C   0  0  0  0  0  0  0  0  0  0  0  0
    0.0000    0.0000    0.0000 O   0  0  0  0  0  0  0  0  0  0  0  0
    0.0000    0.0000    0.0000 C   0  0  0  0  0  0  0  0  0  0  0  0
    0.0000    0.0000    0.0000 C   0  0  0  0  0  0  0  0  0  0  0  0
    0.0000    0.0000    0.0000 C   0  0  0  0  0  0  0  0  0  0  0  0
    0.0000    0.0000    0.0000 C   0  0  0  0  0  0  0  0  0  0  0  0
    0.0000    0.0000    0.0000 C   0  0  0  0  0  0  0  0  0  0  0  0
    0.0000    0.0000    0.0000 C   0  0  0  0  0  0  0  0  0  0  0  0
    0.0000    0.0000    0.0000 N   0  0  0  0  0  0  0  0  0  0  0  0
    0.0000    0.0000    0.0000 C   0  0  0  0  0  0  0  0  0  0  0  0
    0.0000    0.0000    0.0000 O   0  0  0  0  0  0  0  0  0  0  0  0
    0.0000    0.0000    0.0000 N   0  0  0  0  0  0  0  0  0  0  0  0
    0.0000    0.0000    0.0000 C   0  0  0  0  0  0  0  0  0  0  0  0
    0.0000    0.0000    0.0000 C   0  0  0  0  0  0  0  0  0  0  0  0
    0.0000    0.0000    0.0000 C   0  0  0  0  0  0  0  0  0  0  0  0
    0.0000    0.0000    0.0000 C   0  0  0  0  0  0  0  0  0  0  0  0
    0.0000    0.0000    0.0000 C   0  0  0  0  0  0  0  0  0  0  0  0
    0.0000    0.0000    0.0000 C   0  0  0  0  0  0  0  0  0  0  0  0
    0.0000    0.0000    0.0000 C   0  0  0  0  0  0  0  0  0  0  0  0
    0.0000    0.0000    0.0000 C   0  0  0  0  0  0  0  0  0  0  0  0
    0.0000    0.0000    0.0000 C   0  0  0  0  0  0  0  0  0  0  0  0
    0.0000    0.0000    0.0000 C   0  0  0  0  0  0  0  0  0  0  0  0
    0.0000    0.0000    0.0000 O   0  0  0  0  0  0  0  0  0  0  0  0
    0.0000    0.0000    0.0000 N   0  0  0  0  0  0  0  0  0  0  0  0
    0.0000    0.0000    0.0000 C   0  0  0  0  0  0  0  0  0  0  0  0
    0.0000    0.0000    0.0000 C   0  0  0  0  0  0  0  0  0  0  0  0
    0.0000    0.0000    0.0000 C   0  0  0  0  0  0  0  0  0  0  0  0
    0.0000    0.0000    0.0000 O   0  0  0  0  0  0  0  0  0  0  0  0
    0.0000    0.0000    0.0000 O   0  0  0  0  0  0  0  0  0  0  0  0
    0.0000    0.0000    0.0000 C   0  0  0  0  0  0  0  0  0  0  0  0
    0.0000    0.0000    0.0000 C   0  0  0  0  0  0  0  0  0  0  0  0
    0.0000    0.0000    0.0000 C   0  0  0  0  0  0  0  0  0  0  0  0
    0.0000    0.0000    0.0000 C   0  0  0  0  0  0  0  0  0  0  0  0
    0.0000    0.0000    0.0000 C   0  0  0  0  0  0  0  0  0  0  0  0
    0.0000    0.0000    0.0000 C   0  0  0  0  0  0  0  0  0  0  0  0
    0.0000    0.0000    0.0000 C   0  0  0  0  0  0  0  0  0  0  0  0
    0.0000    0.0000    0.0000 C   0  0  0  0  0  0  0  0  0  0  0  0
    0.0000    0.0000    0.0000 C   0  0  0  0  0  0  0  0  0  0  0  0
    0.0000    0.0000    0.0000 C   0  0  0  0  0  0  0  0  0  0  0  0
    0.0000    0.0000    0.0000 C   0  0  0  0  0  0  0  0  0  0  0  0
    0.0000    0.0000    0.0000 C   0  0  0  0  0  0  0  0  0  0  0  0
    0.0000    0.0000    0.0000 C   0  0  0  0  0  0  0  0  0  0  0  0
    0.0000    0.0000    0.0000 C   0  0  0  0  0  0  0  0  0  0  0  0
    0.0000    0.0000    0.0000 N   0  0  0  0  0  0  0  0  0  0  0  0
    0.0000    0.0000    0.0000 C   0  0  0  0  0  0  0  0  0  0  0  0
    0.0000    0.0000    0.0000 C   0  0  0  0  0  0  0  0  0  0  0  0
    0.0000    0.0000    0.0000 C   0  0  0  0  0  0  0  0  0  0  0  0
    0.0000    0.0000    0.0000 C   0  0  0  0  0  0  0  0  0  0  0  0
    0.0000    0.0000    0.0000 C   0  0  0  0  0  0  0  0  0  0  0  0
    0.0000    0.0000    0.0000 C   0  0  0  0  0  0  0  0  0  0  0  0
    0.0000    0.0000    0.0000 C   0  0  0  0  0  0  0  0  0  0  0  0
  1  2  1  0
  2  3  2  0
  3  4  1  0
  4  5  1  0
  4  6  2  0
  6  7  1  0
  7  8  1  0
  7  9  2  0
  9 10  1  0
 10 11  1  0
 11 12  1  0
 11 13  1  0
 13 14  2  0
 13 15  1  0
 15 16  1  0
 16 17  1  0
 17 18  2  0
 18 19  1  0
 19 20  2  0
 20 21  1  0
 21 22  2  0
 22 23  1  0
 23 24  1  0
 24 25  1  0
 25 26  2  0
 25 27  1  0
 27 28  1  0
 28 29  1  0
 29 30  1  0
 30 31  2  0
 30 32  1  0
 32 33  1  0
 33 34  2  0
 34 35  1  0
 35 36  2  0
 36 37  1  0
 37 38  1  0
 38 39  1  0
 39 40  1  0
 40 41  1  0
 41 42  1  0
 42 43  1  0
 43 44  1  0
 44 45  1  0
 45 46  1  0
 46 47  1  0
 47 48  1  0
 48 49  1  0
 49 50  1  0
 50 51  1  0
 51 52  1  0
 44 53  1  0
 53 54  2  0
  9  2  1  0
 24 15  1  0
 22 17  1  0
 54 33  1  0
 53 36  1  0
 47 38  1  0
 44 39  1  0
 52 49  1  0
M  END
>  <pIC50>  (351) 
7.01

>  <ChEMBL_ID>  (351) 
CHEMBL373984

>  <document_journal>  (351) 
J. Med. Chem.

>  <bao_endpoint>  (351) 
BAO_0000190

>  <potential_duplicate>  (351) 
False

>  <uo_units>  (351) 
UO_0000065

>  <canonical_smiles>  (351) 
Cc1cc(O)cc(C)c1C[C@H](N)C(=O)N2Cc3ccccc3C[C@H]2C(=O)NCCC(=O)Oc4ccc5C[C@@H]6[C@@H]7CCCC[C@]7(CCN6CC8CCC8)c5c4

>  <parent_molecule_chembl_id>  (351) 
CHEMBL373984

>  <assay_type>  (351) 
F

>  <src_id>  (351) 
1

>  <ligand_efficiency>  (351) 
None

>  <standard_flag>  (351) 
True

>  <molecule_chembl_id>  (351) 
CHEMBL373984

>  <target_organism>  (351) 
Homo sapiens

>  <standard_units>  (351) 
nM

>  <record_id>  (351) 
557671

>  <document_chembl_id>  (351) 
CHEMBL1146900

>  <bao_format>  (351) 
BAO_0000219

>  <data_validity_description>  (351) 
None

>  <activity_id>  (351) 
1761953

>  <standard_type>  (351) 
IC50

>  <target_chembl_id>  (351) 
CHEMBL233

>  <data_validity_comment>  (351) 
None

>  <published_value>  (351) 
97

>  <document_year>  (351) 
2006

>  <target_pref_name>  (351) 
Mu opioid receptor

>  <assay_chembl_id>  (351) 
CHEMBL870440

>  <standard_relation>  (351) 
=

>  <assay_description>  (351) 
Antagonist activity against human mu opioid receptor expressed in CHO cells assessed as inhibition of DAMGO-stimulated [35S]GTP-gamma-S binding

>  <published_relation>  (351) 
=

>  <standard_value>  (351) 
97

>  <qudt_units>  (351) 
http://www.openphacts.org/units/Nanomolar

>  <target_tax_id>  (351) 
9606

>  <bao_label>  (351) 
cell-based format

>  <published_units>  (351) 
nM

>  <pchembl_value>  (351) 
7.01

>  <published_type>  (351) 
IC50

>  <activity_comment>  (351) 
None

$$$$

     RDKit          

 36 41  0  0  0  0  0  0  0  0999 V2000
    0.0000    0.0000    0.0000 C   0  0  0  0  0  0  0  0  0  0  0  0
    0.0000    0.0000    0.0000 C   0  0  0  0  0  0  0  0  0  0  0  0
    0.0000    0.0000    0.0000 C   0  0  0  0  0  0  0  0  0  0  0  0
    0.0000    0.0000    0.0000 C   0  0  0  0  0  0  0  0  0  0  0  0
    0.0000    0.0000    0.0000 C   0  0  0  0  0  0  0  0  0  0  0  0
    0.0000    0.0000    0.0000 C   0  0  0  0  0  0  0  0  0  0  0  0
    0.0000    0.0000    0.0000 C   0  0  0  0  0  0  0  0  0  0  0  0
    0.0000    0.0000    0.0000 C   0  0  0  0  0  0  0  0  0  0  0  0
    0.0000    0.0000    0.0000 C   0  0  0  0  0  0  0  0  0  0  0  0
    0.0000    0.0000    0.0000 C   0  0  0  0  0  0  0  0  0  0  0  0
    0.0000    0.0000    0.0000 C   0  0  0  0  0  0  0  0  0  0  0  0
    0.0000    0.0000    0.0000 C   0  0  0  0  0  0  0  0  0  0  0  0
    0.0000    0.0000    0.0000 C   0  0  0  0  0  0  0  0  0  0  0  0
    0.0000    0.0000    0.0000 C   0  0  0  0  0  0  0  0  0  0  0  0
    0.0000    0.0000    0.0000 N   0  0  0  0  0  0  0  0  0  0  0  0
    0.0000    0.0000    0.0000 C   0  0  0  0  0  0  0  0  0  0  0  0
    0.0000    0.0000    0.0000 C   0  0  0  0  0  0  0  0  0  0  0  0
    0.0000    0.0000    0.0000 C   0  0  0  0  0  0  0  0  0  0  0  0
    0.0000    0.0000    0.0000 C   0  0  0  0  0  0  0  0  0  0  0  0
    0.0000    0.0000    0.0000 C   0  0  0  0  0  0  0  0  0  0  0  0
    0.0000    0.0000    0.0000 O   0  0  0  0  0  0  0  0  0  0  0  0
    0.0000    0.0000    0.0000 N   0  0  0  0  0  0  0  0  0  0  0  0
    0.0000    0.0000    0.0000 C   0  0  0  0  0  0  0  0  0  0  0  0
    0.0000    0.0000    0.0000 C   0  0  0  0  0  0  0  0  0  0  0  0
    0.0000    0.0000    0.0000 C   0  0  0  0  0  0  0  0  0  0  0  0
    0.0000    0.0000    0.0000 C   0  0  0  0  0  0  0  0  0  0  0  0
    0.0000    0.0000    0.0000 C   0  0  0  0  0  0  0  0  0  0  0  0
    0.0000    0.0000    0.0000 C   0  0  0  0  0  0  0  0  0  0  0  0
    0.0000    0.0000    0.0000 C   0  0  0  0  0  0  0  0  0  0  0  0
    0.0000    0.0000    0.0000 C   0  0  0  0  0  0  0  0  0  0  0  0
    0.0000    0.0000    0.0000 C   0  0  0  0  0  0  0  0  0  0  0  0
    0.0000    0.0000    0.0000 C   0  0  0  0  0  0  0  0  0  0  0  0
    0.0000    0.0000    0.0000 C   0  0  0  0  0  0  0  0  0  0  0  0
    0.0000    0.0000    0.0000 C   0  0  0  0  0  0  0  0  0  0  0  0
    0.0000    0.0000    0.0000 C   0  0  0  0  0  0  0  0  0  0  0  0
    0.0000    0.0000    0.0000 C   0  0  0  0  0  0  0  0  0  0  0  0
  1  2  1  0
  2  3  1  0
  3  4  1  0
  4  5  1  0
  5  6  2  0
  6  7  1  0
  7  8  2  0
  8  9  1  0
  9 10  2  0
 10 11  1  0
 11 12  1  0
 11 13  1  0
 13 14  1  0
 14 15  1  0
 15 16  1  0
 16 17  1  0
 17 18  1  0
 18 19  1  0
  8 20  1  0
 20 21  2  0
 20 22  1  0
 22 23  1  0
 23 24  1  0
 24 25  1  0
 25 26  2  0
 26 27  1  0
 27 28  2  0
 28 29  1  0
 29 30  2  0
 28 31  1  0
 31 32  2  0
 32 33  1  0
 33 34  2  0
 34 35  1  0
 35 36  2  0
 11  2  1  0
 15  3  1  0
 10  5  1  0
 19 17  1  0
 30 25  1  0
 36 31  1  0
M  END
>  <pIC50>  (352) 
6.82

>  <ChEMBL_ID>  (352) 
CHEMBL377789

>  <document_journal>  (352) 
J. Med. Chem.

>  <bao_endpoint>  (352) 
BAO_0000190

>  <potential_duplicate>  (352) 
False

>  <uo_units>  (352) 
UO_0000065

>  <canonical_smiles>  (352) 
C[C@H]1C2Cc3ccc(cc3[C@@]1(C)CCN2CC4CC4)C(=O)NCCc5ccc(cc5)c6ccccc6

>  <parent_molecule_chembl_id>  (352) 
CHEMBL377789

>  <assay_type>  (352) 
F

>  <src_id>  (352) 
1

>  <ligand_efficiency>  (352) 
None

>  <standard_flag>  (352) 
True

>  <molecule_chembl_id>  (352) 
CHEMBL377789

>  <target_organism>  (352) 
Homo sapiens

>  <standard_units>  (352) 
nM

>  <record_id>  (352) 
557409

>  <document_chembl_id>  (352) 
CHEMBL1146899

>  <bao_format>  (352) 
BAO_0000219

>  <data_validity_description>  (352) 
None

>  <activity_id>  (352) 
1762183

>  <standard_type>  (352) 
IC50

>  <target_chembl_id>  (352) 
CHEMBL233

>  <data_validity_comment>  (352) 
None

>  <published_value>  (352) 
150

>  <document_year>  (352) 
2006

>  <target_pref_name>  (352) 
Mu opioid receptor

>  <assay_chembl_id>  (352) 
CHEMBL870418

>  <standard_relation>  (352) 
=

>  <assay_description>  (352) 
Antagonist activity against human mu opioid receptor expressed in CHO cells assessed as inhibition of DAMGO-stimulated [35S]GTPgammaS binding

>  <published_relation>  (352) 
=

>  <standard_value>  (352) 
150

>  <qudt_units>  (352) 
http://www.openphacts.org/units/Nanomolar

>  <target_tax_id>  (352) 
9606

>  <bao_label>  (352) 
cell-based format

>  <published_units>  (352) 
nM

>  <pchembl_value>  (352) 
6.82

>  <published_type>  (352) 
IC50

>  <activity_comment>  (352) 
None

$$$$

     RDKit          

 22 25  0  0  0  0  0  0  0  0999 V2000
    0.0000    0.0000    0.0000 C   0  0  0  0  0  0  0  0  0  0  0  0
    0.0000    0.0000    0.0000 C   0  0  0  0  0  0  0  0  0  0  0  0
    0.0000    0.0000    0.0000 C   0  0  0  0  0  0  0  0  0  0  0  0
    0.0000    0.0000    0.0000 C   0  0  0  0  0  0  0  0  0  0  0  0
    0.0000    0.0000    0.0000 C   0  0  0  0  0  0  0  0  0  0  0  0
    0.0000    0.0000    0.0000 C   0  0  0  0  0  0  0  0  0  0  0  0
    0.0000    0.0000    0.0000 C   0  0  0  0  0  0  0  0  0  0  0  0
    0.0000    0.0000    0.0000 C   0  0  0  0  0  0  0  0  0  0  0  0
    0.0000    0.0000    0.0000 C   0  0  0  0  0  0  0  0  0  0  0  0
    0.0000    0.0000    0.0000 C   0  0  0  0  0  0  0  0  0  0  0  0
    0.0000    0.0000    0.0000 C   0  0  0  0  0  0  0  0  0  0  0  0
    0.0000    0.0000    0.0000 C   0  0  0  0  0  0  0  0  0  0  0  0
    0.0000    0.0000    0.0000 C   0  0  0  0  0  0  0  0  0  0  0  0
    0.0000    0.0000    0.0000 C   0  0  0  0  0  0  0  0  0  0  0  0
    0.0000    0.0000    0.0000 N   0  0  0  0  0  0  0  0  0  0  0  0
    0.0000    0.0000    0.0000 C   0  0  0  0  0  0  0  0  0  0  0  0
    0.0000    0.0000    0.0000 C   0  0  0  0  0  0  0  0  0  0  0  0
    0.0000    0.0000    0.0000 C   0  0  0  0  0  0  0  0  0  0  0  0
    0.0000    0.0000    0.0000 C   0  0  0  0  0  0  0  0  0  0  0  0
    0.0000    0.0000    0.0000 C   0  0  0  0  0  0  0  0  0  0  0  0
    0.0000    0.0000    0.0000 O   0  0  0  0  0  0  0  0  0  0  0  0
    0.0000    0.0000    0.0000 N   0  0  0  0  0  0  0  0  0  0  0  0
  1  2  1  0
  2  3  1  0
  3  4  1  0
  4  5  1  0
  5  6  2  0
  6  7  1  0
  7  8  2  0
  8  9  1  0
  9 10  2  0
 10 11  1  0
 11 12  1  0
 11 13  1  0
 13 14  1  0
 14 15  1  0
 15 16  1  0
 16 17  1  0
 17 18  1  0
 18 19  1  0
  8 20  1  0
 20 21  2  0
 20 22  1  0
 11  2  1  0
 15  3  1  0
 10  5  1  0
 19 17  1  0
M  END
>  <pIC50>  (353) 
7.965

>  <ChEMBL_ID>  (353) 
CHEMBL58646

>  <document_journal>  (353) 
J. Med. Chem.

>  <bao_endpoint>  (353) 
BAO_0000190

>  <potential_duplicate>  (353) 
False

>  <uo_units>  (353) 
UO_0000065

>  <canonical_smiles>  (353) 
C[C@H]1C2Cc3ccc(cc3[C@@]1(C)CCN2CC4CC4)C(=O)N

>  <parent_molecule_chembl_id>  (353) 
CHEMBL58646

>  <assay_type>  (353) 
F

>  <src_id>  (353) 
1

>  <ligand_efficiency>  (353) 
None

>  <standard_flag>  (353) 
True

>  <molecule_chembl_id>  (353) 
CHEMBL58646

>  <target_organism>  (353) 
Homo sapiens

>  <standard_units>  (353) 
nM

>  <record_id>  (353) 
557402

>  <document_chembl_id>  (353) 
CHEMBL1146899

>  <bao_format>  (353) 
BAO_0000219

>  <data_validity_description>  (353) 
None

>  <activity_id>  (353) 
1762274

>  <standard_type>  (353) 
IC50

>  <target_chembl_id>  (353) 
CHEMBL233

>  <data_validity_comment>  (353) 
None

>  <published_value>  (353) 
21

>  <document_year>  (353) 
2006

>  <target_pref_name>  (353) 
Mu opioid receptor

>  <assay_chembl_id>  (353) 
CHEMBL870418

>  <standard_relation>  (353) 
=

>  <assay_description>  (353) 
Antagonist activity against human mu opioid receptor expressed in CHO cells assessed as inhibition of DAMGO-stimulated [35S]GTPgammaS binding

>  <published_relation>  (353) 
=

>  <standard_value>  (353) 
21

>  <qudt_units>  (353) 
http://www.openphacts.org/units/Nanomolar

>  <target_tax_id>  (353) 
9606

>  <bao_label>  (353) 
cell-based format

>  <published_units>  (353) 
nM

>  <pchembl_value>  (353) 
7.68

>  <published_type>  (353) 
IC50

>  <activity_comment>  (353) 
None

$$$$

     RDKit          

 37 43  0  0  0  0  0  0  0  0999 V2000
    0.0000    0.0000    0.0000 C   0  0  0  0  0  0  0  0  0  0  0  0
    0.0000    0.0000    0.0000 O   0  0  0  0  0  0  0  0  0  0  0  0
    0.0000    0.0000    0.0000 C   0  0  0  0  0  0  0  0  0  0  0  0
    0.0000    0.0000    0.0000 C   0  0  0  0  0  0  0  0  0  0  0  0
    0.0000    0.0000    0.0000 C   0  0  0  0  0  0  0  0  0  0  0  0
    0.0000    0.0000    0.0000 C   0  0  0  0  0  0  0  0  0  0  0  0
    0.0000    0.0000    0.0000 C   0  0  0  0  0  0  0  0  0  0  0  0
    0.0000    0.0000    0.0000 C   0  0  0  0  0  0  0  0  0  0  0  0
    0.0000    0.0000    0.0000 N   0  0  0  0  0  0  0  0  0  0  0  0
    0.0000    0.0000    0.0000 C   0  0  0  0  0  0  0  0  0  0  0  0
    0.0000    0.0000    0.0000 C   0  0  0  0  0  0  0  0  0  0  0  0
    0.0000    0.0000    0.0000 C   0  0  0  0  0  0  0  0  0  0  0  0
    0.0000    0.0000    0.0000 C   0  0  0  0  0  0  0  0  0  0  0  0
    0.0000    0.0000    0.0000 C   0  0  0  0  0  0  0  0  0  0  0  0
    0.0000    0.0000    0.0000 C   0  0  0  0  0  0  0  0  0  0  0  0
    0.0000    0.0000    0.0000 C   0  0  0  0  0  0  0  0  0  0  0  0
    0.0000    0.0000    0.0000 C   0  0  0  0  0  0  0  0  0  0  0  0
    0.0000    0.0000    0.0000 O   0  0  0  0  0  0  0  0  0  0  0  0
    0.0000    0.0000    0.0000 C   0  0  0  0  0  0  0  0  0  0  0  0
    0.0000    0.0000    0.0000 C   0  0  0  0  0  0  0  0  0  0  0  0
    0.0000    0.0000    0.0000 C   0  0  0  0  0  0  0  0  0  0  0  0
    0.0000    0.0000    0.0000 O   0  0  0  0  0  0  0  0  0  0  0  0
    0.0000    0.0000    0.0000 C   0  0  0  0  0  0  0  0  0  0  0  0
    0.0000    0.0000    0.0000 C   0  0  0  0  0  0  0  0  0  0  0  0
    0.0000    0.0000    0.0000 C   0  0  0  0  0  0  0  0  0  0  0  0
    0.0000    0.0000    0.0000 N   0  0  0  0  0  0  0  0  0  0  0  0
    0.0000    0.0000    0.0000 C   0  0  0  0  0  0  0  0  0  0  0  0
    0.0000    0.0000    0.0000 O   0  0  0  0  0  0  0  0  0  0  0  0
    0.0000    0.0000    0.0000 C   0  0  0  0  0  0  0  0  0  0  0  0
    0.0000    0.0000    0.0000 C   0  0  0  0  0  0  0  0  0  0  0  0
    0.0000    0.0000    0.0000 C   0  0  0  0  0  0  0  0  0  0  0  0
    0.0000    0.0000    0.0000 C   0  0  0  0  0  0  0  0  0  0  0  0
    0.0000    0.0000    0.0000 C   0  0  0  0  0  0  0  0  0  0  0  0
    0.0000    0.0000    0.0000 C   0  0  0  0  0  0  0  0  0  0  0  0
    0.0000    0.0000    0.0000 Cl  0  0  0  0  0  0  0  0  0  0  0  0
    0.0000    0.0000    0.0000 C   0  0  0  0  0  0  0  0  0  0  0  0
    0.0000    0.0000    0.0000 C   0  0  0  0  0  0  0  0  0  0  0  0
  1  2  1  0
  2  3  1  0
  3  4  2  0
  4  5  1  0
  5  6  2  0
  6  7  1  0
  7  8  1  0
  8  9  1  0
  9 10  1  0
 10 11  1  0
 11 12  1  0
 12 13  1  0
  9 14  1  0
 14 15  1  0
 15 16  1  0
 16 17  1  0
 17 18  1  0
 18 19  1  0
 19 20  2  0
 17 21  1  0
 21 22  2  0
 21 23  1  0
 23 24  1  0
 24 25  1  0
 25 26  1  0
 26 27  1  0
 27 28  2  0
 27 29  1  0
 29 30  2  0
 30 31  1  0
 31 32  2  0
 32 33  1  0
 33 34  2  0
 34 35  1  0
 34 36  1  0
 36 37  2  0
 19  3  1  0
 20  6  1  0
 25  8  1  0
 13 11  1  0
 20 16  1  0
 25 16  1  0
 37 31  1  0
M  END
>  <pIC50>  (354) 
9.01

>  <ChEMBL_ID>  (354) 
CHEMBL386272

>  <document_journal>  (354) 
J. Med. Chem.

>  <bao_endpoint>  (354) 
BAO_0000190

>  <potential_duplicate>  (354) 
False

>  <uo_units>  (354) 
UO_0000065

>  <canonical_smiles>  (354) 
COc1ccc2C[C@H]3N(CC4CC4)CC[C@@]56[C@@H](Oc1c25)C(=O)CC[C@@]36NC(=O)\C=C\c7ccc(Cl)cc7

>  <parent_molecule_chembl_id>  (354) 
CHEMBL386272

>  <assay_type>  (354) 
F

>  <src_id>  (354) 
1

>  <ligand_efficiency>  (354) 
None

>  <standard_flag>  (354) 
True

>  <molecule_chembl_id>  (354) 
CHEMBL386272

>  <target_organism>  (354) 
Homo sapiens

>  <standard_units>  (354) 
nM

>  <record_id>  (354) 
606863

>  <document_chembl_id>  (354) 
CHEMBL1137387

>  <bao_format>  (354) 
BAO_0000219

>  <data_validity_description>  (354) 
None

>  <activity_id>  (354) 
1774769

>  <standard_type>  (354) 
IC50

>  <target_chembl_id>  (354) 
CHEMBL233

>  <data_validity_comment>  (354) 
None

>  <published_value>  (354) 
0.97

>  <document_year>  (354) 
2006

>  <target_pref_name>  (354) 
Mu opioid receptor

>  <assay_chembl_id>  (354) 
CHEMBL907187

>  <standard_relation>  (354) 
=

>  <assay_description>  (354) 
Activity at human recombinant mu opioid receptor expressed in CHO cells assessed as stimulation of [35S]GTP-gamma-S binding

>  <published_relation>  (354) 
=

>  <standard_value>  (354) 
0.97

>  <qudt_units>  (354) 
http://www.openphacts.org/units/Nanomolar

>  <target_tax_id>  (354) 
9606

>  <bao_label>  (354) 
cell-based format

>  <published_units>  (354) 
nM

>  <pchembl_value>  (354) 
9.01

>  <published_type>  (354) 
IC50

>  <activity_comment>  (354) 
None

$$$$

     RDKit          

 26 31  0  0  0  0  0  0  0  0999 V2000
    0.0000    0.0000    0.0000 C   0  0  0  0  0  0  0  0  0  0  0  0
    0.0000    0.0000    0.0000 O   0  0  0  0  0  0  0  0  0  0  0  0
    0.0000    0.0000    0.0000 C   0  0  0  0  0  0  0  0  0  0  0  0
    0.0000    0.0000    0.0000 C   0  0  0  0  0  0  0  0  0  0  0  0
    0.0000    0.0000    0.0000 C   0  0  0  0  0  0  0  0  0  0  0  0
    0.0000    0.0000    0.0000 C   0  0  0  0  0  0  0  0  0  0  0  0
    0.0000    0.0000    0.0000 C   0  0  0  0  0  0  0  0  0  0  0  0
    0.0000    0.0000    0.0000 C   0  0  0  0  0  0  0  0  0  0  0  0
    0.0000    0.0000    0.0000 N   0  0  0  0  0  0  0  0  0  0  0  0
    0.0000    0.0000    0.0000 C   0  0  0  0  0  0  0  0  0  0  0  0
    0.0000    0.0000    0.0000 C   0  0  0  0  0  0  0  0  0  0  0  0
    0.0000    0.0000    0.0000 C   0  0  0  0  0  0  0  0  0  0  0  0
    0.0000    0.0000    0.0000 C   0  0  0  0  0  0  0  0  0  0  0  0
    0.0000    0.0000    0.0000 C   0  0  0  0  0  0  0  0  0  0  0  0
    0.0000    0.0000    0.0000 C   0  0  0  0  0  0  0  0  0  0  0  0
    0.0000    0.0000    0.0000 C   0  0  0  0  0  0  0  0  0  0  0  0
    0.0000    0.0000    0.0000 C   0  0  0  0  0  0  0  0  0  0  0  0
    0.0000    0.0000    0.0000 O   0  0  0  0  0  0  0  0  0  0  0  0
    0.0000    0.0000    0.0000 C   0  0  0  0  0  0  0  0  0  0  0  0
    0.0000    0.0000    0.0000 C   0  0  0  0  0  0  0  0  0  0  0  0
    0.0000    0.0000    0.0000 C   0  0  0  0  0  0  0  0  0  0  0  0
    0.0000    0.0000    0.0000 O   0  0  0  0  0  0  0  0  0  0  0  0
    0.0000    0.0000    0.0000 C   0  0  0  0  0  0  0  0  0  0  0  0
    0.0000    0.0000    0.0000 C   0  0  0  0  0  0  0  0  0  0  0  0
    0.0000    0.0000    0.0000 C   0  0  0  0  0  0  0  0  0  0  0  0
    0.0000    0.0000    0.0000 O   0  0  0  0  0  0  0  0  0  0  0  0
  1  2  1  0
  2  3  1  0
  3  4  2  0
  4  5  1  0
  5  6  2  0
  6  7  1  0
  7  8  1  0
  8  9  1  0
  9 10  1  0
 10 11  1  0
 11 12  1  0
 12 13  1  0
  9 14  1  0
 14 15  1  0
 15 16  1  0
 16 17  1  0
 17 18  1  0
 18 19  1  0
 19 20  2  0
 17 21  1  0
 21 22  2  0
 21 23  1  0
 23 24  1  0
 24 25  1  0
 25 26  1  0
 19  3  1  0
 20  6  1  0
 25  8  1  0
 13 11  1  0
 20 16  1  0
 25 16  1  0
M  END
>  <pIC50>  (355) 
7.02

>  <ChEMBL_ID>  (355) 
CHEMBL387016

>  <document_journal>  (355) 
J. Med. Chem.

>  <bao_endpoint>  (355) 
BAO_0000190

>  <potential_duplicate>  (355) 
False

>  <uo_units>  (355) 
UO_0000065

>  <canonical_smiles>  (355) 
COc1ccc2C[C@H]3N(CC4CC4)CC[C@@]56[C@@H](Oc1c25)C(=O)CC[C@@]36O

>  <parent_molecule_chembl_id>  (355) 
CHEMBL387016

>  <assay_type>  (355) 
F

>  <src_id>  (355) 
1

>  <ligand_efficiency>  (355) 
None

>  <standard_flag>  (355) 
True

>  <molecule_chembl_id>  (355) 
CHEMBL387016

>  <target_organism>  (355) 
Homo sapiens

>  <standard_units>  (355) 
nM

>  <record_id>  (355) 
606887

>  <document_chembl_id>  (355) 
CHEMBL1137387

>  <bao_format>  (355) 
BAO_0000219

>  <data_validity_description>  (355) 
None

>  <activity_id>  (355) 
1774782

>  <standard_type>  (355) 
IC50

>  <target_chembl_id>  (355) 
CHEMBL233

>  <data_validity_comment>  (355) 
None

>  <published_value>  (355) 
96.3

>  <document_year>  (355) 
2006

>  <target_pref_name>  (355) 
Mu opioid receptor

>  <assay_chembl_id>  (355) 
CHEMBL907187

>  <standard_relation>  (355) 
=

>  <assay_description>  (355) 
Activity at human recombinant mu opioid receptor expressed in CHO cells assessed as stimulation of [35S]GTP-gamma-S binding

>  <published_relation>  (355) 
=

>  <standard_value>  (355) 
96.3

>  <qudt_units>  (355) 
http://www.openphacts.org/units/Nanomolar

>  <target_tax_id>  (355) 
9606

>  <bao_label>  (355) 
cell-based format

>  <published_units>  (355) 
nM

>  <pchembl_value>  (355) 
7.02

>  <published_type>  (355) 
IC50

>  <activity_comment>  (355) 
None

$$$$

     RDKit          

 25 30  0  0  0  0  0  0  0  0999 V2000
    0.0000    0.0000    0.0000 O   0  0  0  0  0  0  0  0  0  0  0  0
    0.0000    0.0000    0.0000 C   0  0  0  0  0  0  0  0  0  0  0  0
    0.0000    0.0000    0.0000 C   0  0  0  0  0  0  0  0  0  0  0  0
    0.0000    0.0000    0.0000 C   0  0  0  0  0  0  0  0  0  0  0  0
    0.0000    0.0000    0.0000 C   0  0  0  0  0  0  0  0  0  0  0  0
    0.0000    0.0000    0.0000 C   0  0  0  0  0  0  0  0  0  0  0  0
    0.0000    0.0000    0.0000 C   0  0  0  0  0  0  0  0  0  0  0  0
    0.0000    0.0000    0.0000 N   0  0  0  0  0  0  0  0  0  0  0  0
    0.0000    0.0000    0.0000 C   0  0  0  0  0  0  0  0  0  0  0  0
    0.0000    0.0000    0.0000 C   0  0  0  0  0  0  0  0  0  0  0  0
    0.0000    0.0000    0.0000 C   0  0  0  0  0  0  0  0  0  0  0  0
    0.0000    0.0000    0.0000 C   0  0  0  0  0  0  0  0  0  0  0  0
    0.0000    0.0000    0.0000 C   0  0  0  0  0  0  0  0  0  0  0  0
    0.0000    0.0000    0.0000 C   0  0  0  0  0  0  0  0  0  0  0  0
    0.0000    0.0000    0.0000 C   0  0  0  0  0  0  0  0  0  0  0  0
    0.0000    0.0000    0.0000 C   0  0  0  0  0  0  0  0  0  0  0  0
    0.0000    0.0000    0.0000 O   0  0  0  0  0  0  0  0  0  0  0  0
    0.0000    0.0000    0.0000 C   0  0  0  0  0  0  0  0  0  0  0  0
    0.0000    0.0000    0.0000 C   0  0  0  0  0  0  0  0  0  0  0  0
    0.0000    0.0000    0.0000 C   0  0  0  0  0  0  0  0  0  0  0  0
    0.0000    0.0000    0.0000 O   0  0  0  0  0  0  0  0  0  0  0  0
    0.0000    0.0000    0.0000 C   0  0  0  0  0  0  0  0  0  0  0  0
    0.0000    0.0000    0.0000 C   0  0  0  0  0  0  0  0  0  0  0  0
    0.0000    0.0000    0.0000 C   0  0  0  0  0  0  0  0  0  0  0  0
    0.0000    0.0000    0.0000 O   0  0  0  0  0  0  0  0  0  0  0  0
  1  2  1  0
  2  3  2  0
  3  4  1  0
  4  5  2  0
  5  6  1  0
  6  7  1  0
  7  8  1  0
  8  9  1  0
  9 10  1  0
 10 11  1  0
 11 12  1  0
  8 13  1  0
 13 14  1  0
 14 15  1  0
 15 16  1  0
 16 17  1  0
 17 18  1  0
 18 19  2  0
 16 20  1  0
 20 21  2  0
 20 22  1  0
 22 23  1  0
 23 24  1  0
 24 25  1  0
 18  2  1  0
 19  5  1  0
 24  7  1  0
 12 10  1  0
 19 15  1  0
 24 15  1  0
M  END
>  <pIC50>  (356) 
8.281

>  <ChEMBL_ID>  (356) 
CHEMBL19019

>  <document_journal>  (356) 
J. Med. Chem.

>  <bao_endpoint>  (356) 
BAO_0000190

>  <potential_duplicate>  (356) 
False

>  <uo_units>  (356) 
UO_0000065

>  <canonical_smiles>  (356) 
Oc1ccc2C[C@H]3N(CC4CC4)CC[C@@]56[C@@H](Oc1c25)C(=O)CC[C@@]36O

>  <parent_molecule_chembl_id>  (356) 
CHEMBL19019

>  <assay_type>  (356) 
F

>  <src_id>  (356) 
1

>  <ligand_efficiency>  (356) 
None

>  <standard_flag>  (356) 
True

>  <molecule_chembl_id>  (356) 
CHEMBL19019

>  <target_organism>  (356) 
Homo sapiens

>  <standard_units>  (356) 
nM

>  <record_id>  (356) 
606886

>  <document_chembl_id>  (356) 
CHEMBL1137387

>  <bao_format>  (356) 
BAO_0000219

>  <data_validity_description>  (356) 
None

>  <activity_id>  (356) 
1774783

>  <standard_type>  (356) 
IC50

>  <target_chembl_id>  (356) 
CHEMBL233

>  <data_validity_comment>  (356) 
None

>  <published_value>  (356) 
0.59

>  <document_year>  (356) 
2006

>  <target_pref_name>  (356) 
Mu opioid receptor

>  <assay_chembl_id>  (356) 
CHEMBL907187

>  <standard_relation>  (356) 
=

>  <assay_description>  (356) 
Activity at human recombinant mu opioid receptor expressed in CHO cells assessed as stimulation of [35S]GTP-gamma-S binding

>  <published_relation>  (356) 
=

>  <standard_value>  (356) 
0.59

>  <qudt_units>  (356) 
http://www.openphacts.org/units/Nanomolar

>  <target_tax_id>  (356) 
9606

>  <bao_label>  (356) 
cell-based format

>  <published_units>  (356) 
nM

>  <pchembl_value>  (356) 
9.23

>  <published_type>  (356) 
IC50

>  <activity_comment>  (356) 
None

$$$$

     RDKit          

 34 40  0  0  0  0  0  0  0  0999 V2000
    0.0000    0.0000    0.0000 O   0  0  0  0  0  0  0  0  0  0  0  0
    0.0000    0.0000    0.0000 C   0  0  0  0  0  0  0  0  0  0  0  0
    0.0000    0.0000    0.0000 C   0  0  0  0  0  0  0  0  0  0  0  0
    0.0000    0.0000    0.0000 C   0  0  0  0  0  0  0  0  0  0  0  0
    0.0000    0.0000    0.0000 C   0  0  0  0  0  0  0  0  0  0  0  0
    0.0000    0.0000    0.0000 C   0  0  0  0  0  0  0  0  0  0  0  0
    0.0000    0.0000    0.0000 C   0  0  0  0  0  0  0  0  0  0  0  0
    0.0000    0.0000    0.0000 N   0  0  0  0  0  0  0  0  0  0  0  0
    0.0000    0.0000    0.0000 C   0  0  0  0  0  0  0  0  0  0  0  0
    0.0000    0.0000    0.0000 C   0  0  0  0  0  0  0  0  0  0  0  0
    0.0000    0.0000    0.0000 C   0  0  0  0  0  0  0  0  0  0  0  0
    0.0000    0.0000    0.0000 C   0  0  0  0  0  0  0  0  0  0  0  0
    0.0000    0.0000    0.0000 C   0  0  0  0  0  0  0  0  0  0  0  0
    0.0000    0.0000    0.0000 C   0  0  0  0  0  0  0  0  0  0  0  0
    0.0000    0.0000    0.0000 C   0  0  0  0  0  0  0  0  0  0  0  0
    0.0000    0.0000    0.0000 C   0  0  0  0  0  0  0  0  0  0  0  0
    0.0000    0.0000    0.0000 O   0  0  0  0  0  0  0  0  0  0  0  0
    0.0000    0.0000    0.0000 C   0  0  0  0  0  0  0  0  0  0  0  0
    0.0000    0.0000    0.0000 C   0  0  0  0  0  0  0  0  0  0  0  0
    0.0000    0.0000    0.0000 C   0  0  0  0  0  0  0  0  0  0  0  0
    0.0000    0.0000    0.0000 O   0  0  0  0  0  0  0  0  0  0  0  0
    0.0000    0.0000    0.0000 C   0  0  0  0  0  0  0  0  0  0  0  0
    0.0000    0.0000    0.0000 C   0  0  0  0  0  0  0  0  0  0  0  0
    0.0000    0.0000    0.0000 C   0  0  0  0  0  0  0  0  0  0  0  0
    0.0000    0.0000    0.0000 N   0  0  0  0  0  0  0  0  0  0  0  0
    0.0000    0.0000    0.0000 C   0  0  0  0  0  0  0  0  0  0  0  0
    0.0000    0.0000    0.0000 C   0  0  0  0  0  0  0  0  0  0  0  0
    0.0000    0.0000    0.0000 C   0  0  0  0  0  0  0  0  0  0  0  0
    0.0000    0.0000    0.0000 C   0  0  0  0  0  0  0  0  0  0  0  0
    0.0000    0.0000    0.0000 C   0  0  0  0  0  0  0  0  0  0  0  0
    0.0000    0.0000    0.0000 C   0  0  0  0  0  0  0  0  0  0  0  0
    0.0000    0.0000    0.0000 Cl  0  0  0  0  0  0  0  0  0  0  0  0
    0.0000    0.0000    0.0000 C   0  0  0  0  0  0  0  0  0  0  0  0
    0.0000    0.0000    0.0000 C   0  0  0  0  0  0  0  0  0  0  0  0
  1  2  1  0
  2  3  2  0
  3  4  1  0
  4  5  2  0
  5  6  1  0
  6  7  1  0
  7  8  1  0
  8  9  1  0
  9 10  1  0
 10 11  1  0
 11 12  1  0
  8 13  1  0
 13 14  1  0
 14 15  1  0
 15 16  1  0
 16 17  1  0
 17 18  1  0
 18 19  2  0
 16 20  1  0
 20 21  2  0
 20 22  1  0
 22 23  1  0
 23 24  1  0
 24 25  1  0
 25 26  1  0
 26 27  1  0
 27 28  1  0
 28 29  2  0
 29 30  1  0
 30 31  2  0
 31 32  1  0
 31 33  1  0
 33 34  2  0
 18  2  1  0
 19  5  1  0
 24  7  1  0
 12 10  1  0
 19 15  1  0
 24 15  1  0
 34 28  1  0
M  END
>  <pIC50>  (357) 
8.81

>  <ChEMBL_ID>  (357) 
CHEMBL217658

>  <document_journal>  (357) 
J. Med. Chem.

>  <bao_endpoint>  (357) 
BAO_0000190

>  <potential_duplicate>  (357) 
False

>  <uo_units>  (357) 
UO_0000065

>  <canonical_smiles>  (357) 
Oc1ccc2C[C@H]3N(CC4CC4)CC[C@@]56[C@@H](Oc1c25)C(=O)CC[C@@]36NCCc7ccc(Cl)cc7

>  <parent_molecule_chembl_id>  (357) 
CHEMBL217658

>  <assay_type>  (357) 
F

>  <src_id>  (357) 
1

>  <ligand_efficiency>  (357) 
None

>  <standard_flag>  (357) 
True

>  <molecule_chembl_id>  (357) 
CHEMBL217658

>  <target_organism>  (357) 
Homo sapiens

>  <standard_units>  (357) 
nM

>  <record_id>  (357) 
606885

>  <document_chembl_id>  (357) 
CHEMBL1137387

>  <bao_format>  (357) 
BAO_0000219

>  <data_validity_description>  (357) 
None

>  <activity_id>  (357) 
1774784

>  <standard_type>  (357) 
IC50

>  <target_chembl_id>  (357) 
CHEMBL233

>  <data_validity_comment>  (357) 
None

>  <published_value>  (357) 
1.56

>  <document_year>  (357) 
2006

>  <target_pref_name>  (357) 
Mu opioid receptor

>  <assay_chembl_id>  (357) 
CHEMBL907187

>  <standard_relation>  (357) 
=

>  <assay_description>  (357) 
Activity at human recombinant mu opioid receptor expressed in CHO cells assessed as stimulation of [35S]GTP-gamma-S binding

>  <published_relation>  (357) 
=

>  <standard_value>  (357) 
1.56

>  <qudt_units>  (357) 
http://www.openphacts.org/units/Nanomolar

>  <target_tax_id>  (357) 
9606

>  <bao_label>  (357) 
cell-based format

>  <published_units>  (357) 
nM

>  <pchembl_value>  (357) 
8.81

>  <published_type>  (357) 
IC50

>  <activity_comment>  (357) 
None

$$$$

     RDKit          

 35 41  0  0  0  0  0  0  0  0999 V2000
    0.0000    0.0000    0.0000 O   0  0  0  0  0  0  0  0  0  0  0  0
    0.0000    0.0000    0.0000 C   0  0  0  0  0  0  0  0  0  0  0  0
    0.0000    0.0000    0.0000 C   0  0  0  0  0  0  0  0  0  0  0  0
    0.0000    0.0000    0.0000 C   0  0  0  0  0  0  0  0  0  0  0  0
    0.0000    0.0000    0.0000 C   0  0  0  0  0  0  0  0  0  0  0  0
    0.0000    0.0000    0.0000 C   0  0  0  0  0  0  0  0  0  0  0  0
    0.0000    0.0000    0.0000 C   0  0  0  0  0  0  0  0  0  0  0  0
    0.0000    0.0000    0.0000 N   0  0  0  0  0  0  0  0  0  0  0  0
    0.0000    0.0000    0.0000 C   0  0  0  0  0  0  0  0  0  0  0  0
    0.0000    0.0000    0.0000 C   0  0  0  0  0  0  0  0  0  0  0  0
    0.0000    0.0000    0.0000 C   0  0  0  0  0  0  0  0  0  0  0  0
    0.0000    0.0000    0.0000 C   0  0  0  0  0  0  0  0  0  0  0  0
    0.0000    0.0000    0.0000 C   0  0  0  0  0  0  0  0  0  0  0  0
    0.0000    0.0000    0.0000 C   0  0  0  0  0  0  0  0  0  0  0  0
    0.0000    0.0000    0.0000 C   0  0  0  0  0  0  0  0  0  0  0  0
    0.0000    0.0000    0.0000 C   0  0  0  0  0  0  0  0  0  0  0  0
    0.0000    0.0000    0.0000 O   0  0  0  0  0  0  0  0  0  0  0  0
    0.0000    0.0000    0.0000 C   0  0  0  0  0  0  0  0  0  0  0  0
    0.0000    0.0000    0.0000 C   0  0  0  0  0  0  0  0  0  0  0  0
    0.0000    0.0000    0.0000 C   0  0  0  0  0  0  0  0  0  0  0  0
    0.0000    0.0000    0.0000 O   0  0  0  0  0  0  0  0  0  0  0  0
    0.0000    0.0000    0.0000 C   0  0  0  0  0  0  0  0  0  0  0  0
    0.0000    0.0000    0.0000 C   0  0  0  0  0  0  0  0  0  0  0  0
    0.0000    0.0000    0.0000 C   0  0  0  0  0  0  0  0  0  0  0  0
    0.0000    0.0000    0.0000 N   0  0  0  0  0  0  0  0  0  0  0  0
    0.0000    0.0000    0.0000 C   0  0  0  0  0  0  0  0  0  0  0  0
    0.0000    0.0000    0.0000 O   0  0  0  0  0  0  0  0  0  0  0  0
    0.0000    0.0000    0.0000 C   0  0  0  0  0  0  0  0  0  0  0  0
    0.0000    0.0000    0.0000 C   0  0  0  0  0  0  0  0  0  0  0  0
    0.0000    0.0000    0.0000 C   0  0  0  0  0  0  0  0  0  0  0  0
    0.0000    0.0000    0.0000 C   0  0  0  0  0  0  0  0  0  0  0  0
    0.0000    0.0000    0.0000 C   0  0  0  0  0  0  0  0  0  0  0  0
    0.0000    0.0000    0.0000 Cl  0  0  0  0  0  0  0  0  0  0  0  0
    0.0000    0.0000    0.0000 C   0  0  0  0  0  0  0  0  0  0  0  0
    0.0000    0.0000    0.0000 C   0  0  0  0  0  0  0  0  0  0  0  0
  1  2  1  0
  2  3  2  0
  3  4  1  0
  4  5  2  0
  5  6  1  0
  6  7  1  0
  7  8  1  0
  8  9  1  0
  9 10  1  0
 10 11  1  0
 11 12  1  0
  8 13  1  0
 13 14  1  0
 14 15  1  0
 15 16  1  0
 16 17  1  0
 17 18  1  0
 18 19  2  0
 16 20  1  0
 20 21  2  0
 20 22  1  0
 22 23  1  0
 23 24  1  0
 24 25  1  0
 25 26  1  0
 26 27  2  0
 26 28  1  0
 28 29  1  0
 29 30  2  0
 30 31  1  0
 31 32  2  0
 32 33  1  0
 32 34  1  0
 34 35  2  0
 18  2  1  0
 19  5  1  0
 24  7  1  0
 12 10  1  0
 19 15  1  0
 24 15  1  0
 35 29  1  0
M  END
>  <pIC50>  (358) 
9.59

>  <ChEMBL_ID>  (358) 
CHEMBL448428

>  <document_journal>  (358) 
J. Med. Chem.

>  <bao_endpoint>  (358) 
BAO_0000190

>  <potential_duplicate>  (358) 
False

>  <uo_units>  (358) 
UO_0000065

>  <canonical_smiles>  (358) 
Oc1ccc2C[C@H]3N(CC4CC4)CC[C@@]56[C@@H](Oc1c25)C(=O)CC[C@@]36NC(=O)Cc7ccc(Cl)cc7

>  <parent_molecule_chembl_id>  (358) 
CHEMBL448428

>  <assay_type>  (358) 
F

>  <src_id>  (358) 
1

>  <ligand_efficiency>  (358) 
None

>  <standard_flag>  (358) 
True

>  <molecule_chembl_id>  (358) 
CHEMBL448428

>  <target_organism>  (358) 
Homo sapiens

>  <standard_units>  (358) 
nM

>  <record_id>  (358) 
606884

>  <document_chembl_id>  (358) 
CHEMBL1137387

>  <bao_format>  (358) 
BAO_0000219

>  <data_validity_description>  (358) 
None

>  <activity_id>  (358) 
1774785

>  <standard_type>  (358) 
IC50

>  <target_chembl_id>  (358) 
CHEMBL233

>  <data_validity_comment>  (358) 
None

>  <published_value>  (358) 
0.26

>  <document_year>  (358) 
2006

>  <target_pref_name>  (358) 
Mu opioid receptor

>  <assay_chembl_id>  (358) 
CHEMBL907187

>  <standard_relation>  (358) 
=

>  <assay_description>  (358) 
Activity at human recombinant mu opioid receptor expressed in CHO cells assessed as stimulation of [35S]GTP-gamma-S binding

>  <published_relation>  (358) 
=

>  <standard_value>  (358) 
0.26

>  <qudt_units>  (358) 
http://www.openphacts.org/units/Nanomolar

>  <target_tax_id>  (358) 
9606

>  <bao_label>  (358) 
cell-based format

>  <published_units>  (358) 
nM

>  <pchembl_value>  (358) 
9.59

>  <published_type>  (358) 
IC50

>  <activity_comment>  (358) 
None

$$$$

     RDKit          

 36 42  0  0  0  0  0  0  0  0999 V2000
    0.0000    0.0000    0.0000 O   0  0  0  0  0  0  0  0  0  0  0  0
    0.0000    0.0000    0.0000 C   0  0  0  0  0  0  0  0  0  0  0  0
    0.0000    0.0000    0.0000 C   0  0  0  0  0  0  0  0  0  0  0  0
    0.0000    0.0000    0.0000 C   0  0  0  0  0  0  0  0  0  0  0  0
    0.0000    0.0000    0.0000 C   0  0  0  0  0  0  0  0  0  0  0  0
    0.0000    0.0000    0.0000 C   0  0  0  0  0  0  0  0  0  0  0  0
    0.0000    0.0000    0.0000 C   0  0  0  0  0  0  0  0  0  0  0  0
    0.0000    0.0000    0.0000 N   0  0  0  0  0  0  0  0  0  0  0  0
    0.0000    0.0000    0.0000 C   0  0  0  0  0  0  0  0  0  0  0  0
    0.0000    0.0000    0.0000 C   0  0  0  0  0  0  0  0  0  0  0  0
    0.0000    0.0000    0.0000 C   0  0  0  0  0  0  0  0  0  0  0  0
    0.0000    0.0000    0.0000 C   0  0  0  0  0  0  0  0  0  0  0  0
    0.0000    0.0000    0.0000 C   0  0  0  0  0  0  0  0  0  0  0  0
    0.0000    0.0000    0.0000 C   0  0  0  0  0  0  0  0  0  0  0  0
    0.0000    0.0000    0.0000 C   0  0  0  0  0  0  0  0  0  0  0  0
    0.0000    0.0000    0.0000 C   0  0  0  0  0  0  0  0  0  0  0  0
    0.0000    0.0000    0.0000 O   0  0  0  0  0  0  0  0  0  0  0  0
    0.0000    0.0000    0.0000 C   0  0  0  0  0  0  0  0  0  0  0  0
    0.0000    0.0000    0.0000 C   0  0  0  0  0  0  0  0  0  0  0  0
    0.0000    0.0000    0.0000 C   0  0  0  0  0  0  0  0  0  0  0  0
    0.0000    0.0000    0.0000 O   0  0  0  0  0  0  0  0  0  0  0  0
    0.0000    0.0000    0.0000 C   0  0  0  0  0  0  0  0  0  0  0  0
    0.0000    0.0000    0.0000 C   0  0  0  0  0  0  0  0  0  0  0  0
    0.0000    0.0000    0.0000 C   0  0  0  0  0  0  0  0  0  0  0  0
    0.0000    0.0000    0.0000 N   0  0  0  0  0  0  0  0  0  0  0  0
    0.0000    0.0000    0.0000 C   0  0  0  0  0  0  0  0  0  0  0  0
    0.0000    0.0000    0.0000 C   0  0  0  0  0  0  0  0  0  0  0  0
    0.0000    0.0000    0.0000 C   0  0  0  0  0  0  0  0  0  0  0  0
    0.0000    0.0000    0.0000 C   0  0  0  0  0  0  0  0  0  0  0  0
    0.0000    0.0000    0.0000 C   0  0  0  0  0  0  0  0  0  0  0  0
    0.0000    0.0000    0.0000 C   0  0  0  0  0  0  0  0  0  0  0  0
    0.0000    0.0000    0.0000 C   0  0  0  0  0  0  0  0  0  0  0  0
    0.0000    0.0000    0.0000 C   0  0  0  0  0  0  0  0  0  0  0  0
    0.0000    0.0000    0.0000 Cl  0  0  0  0  0  0  0  0  0  0  0  0
    0.0000    0.0000    0.0000 C   0  0  0  0  0  0  0  0  0  0  0  0
    0.0000    0.0000    0.0000 C   0  0  0  0  0  0  0  0  0  0  0  0
  1  2  1  0
  2  3  2  0
  3  4  1  0
  4  5  2  0
  5  6  1  0
  6  7  1  0
  7  8  1  0
  8  9  1  0
  9 10  1  0
 10 11  1  0
 11 12  1  0
  8 13  1  0
 13 14  1  0
 14 15  1  0
 15 16  1  0
 16 17  1  0
 17 18  1  0
 18 19  2  0
 16 20  1  0
 20 21  2  0
 20 22  1  0
 22 23  1  0
 23 24  1  0
 24 25  1  0
 25 26  1  0
 26 27  1  0
 27 28  1  0
 28 29  1  0
 29 30  1  0
 30 31  2  0
 31 32  1  0
 32 33  2  0
 33 34  1  0
 33 35  1  0
 35 36  2  0
 18  2  1  0
 19  5  1  0
 24  7  1  0
 12 10  1  0
 19 15  1  0
 24 15  1  0
 36 30  1  0
M  END
>  <pIC50>  (359) 
9.54

>  <ChEMBL_ID>  (359) 
CHEMBL217102

>  <document_journal>  (359) 
J. Med. Chem.

>  <bao_endpoint>  (359) 
BAO_0000190

>  <potential_duplicate>  (359) 
False

>  <uo_units>  (359) 
UO_0000065

>  <canonical_smiles>  (359) 
Oc1ccc2C[C@H]3N(CC4CC4)CC[C@@]56[C@@H](Oc1c25)C(=O)CC[C@@]36NCCCCc7ccc(Cl)cc7

>  <parent_molecule_chembl_id>  (359) 
CHEMBL217102

>  <assay_type>  (359) 
F

>  <src_id>  (359) 
1

>  <ligand_efficiency>  (359) 
None

>  <standard_flag>  (359) 
True

>  <molecule_chembl_id>  (359) 
CHEMBL217102

>  <target_organism>  (359) 
Homo sapiens

>  <standard_units>  (359) 
nM

>  <record_id>  (359) 
606883

>  <document_chembl_id>  (359) 
CHEMBL1137387

>  <bao_format>  (359) 
BAO_0000219

>  <data_validity_description>  (359) 
None

>  <activity_id>  (359) 
1774786

>  <standard_type>  (359) 
IC50

>  <target_chembl_id>  (359) 
CHEMBL233

>  <data_validity_comment>  (359) 
None

>  <published_value>  (359) 
0.29

>  <document_year>  (359) 
2006

>  <target_pref_name>  (359) 
Mu opioid receptor

>  <assay_chembl_id>  (359) 
CHEMBL907187

>  <standard_relation>  (359) 
=

>  <assay_description>  (359) 
Activity at human recombinant mu opioid receptor expressed in CHO cells assessed as stimulation of [35S]GTP-gamma-S binding

>  <published_relation>  (359) 
=

>  <standard_value>  (359) 
0.29

>  <qudt_units>  (359) 
http://www.openphacts.org/units/Nanomolar

>  <target_tax_id>  (359) 
9606

>  <bao_label>  (359) 
cell-based format

>  <published_units>  (359) 
nM

>  <pchembl_value>  (359) 
9.54

>  <published_type>  (359) 
IC50

>  <activity_comment>  (359) 
None

$$$$

     RDKit          

 36 42  0  0  0  0  0  0  0  0999 V2000
    0.0000    0.0000    0.0000 O   0  0  0  0  0  0  0  0  0  0  0  0
    0.0000    0.0000    0.0000 C   0  0  0  0  0  0  0  0  0  0  0  0
    0.0000    0.0000    0.0000 C   0  0  0  0  0  0  0  0  0  0  0  0
    0.0000    0.0000    0.0000 C   0  0  0  0  0  0  0  0  0  0  0  0
    0.0000    0.0000    0.0000 C   0  0  0  0  0  0  0  0  0  0  0  0
    0.0000    0.0000    0.0000 C   0  0  0  0  0  0  0  0  0  0  0  0
    0.0000    0.0000    0.0000 C   0  0  0  0  0  0  0  0  0  0  0  0
    0.0000    0.0000    0.0000 N   0  0  0  0  0  0  0  0  0  0  0  0
    0.0000    0.0000    0.0000 C   0  0  0  0  0  0  0  0  0  0  0  0
    0.0000    0.0000    0.0000 C   0  0  0  0  0  0  0  0  0  0  0  0
    0.0000    0.0000    0.0000 C   0  0  0  0  0  0  0  0  0  0  0  0
    0.0000    0.0000    0.0000 C   0  0  0  0  0  0  0  0  0  0  0  0
    0.0000    0.0000    0.0000 C   0  0  0  0  0  0  0  0  0  0  0  0
    0.0000    0.0000    0.0000 C   0  0  0  0  0  0  0  0  0  0  0  0
    0.0000    0.0000    0.0000 C   0  0  0  0  0  0  0  0  0  0  0  0
    0.0000    0.0000    0.0000 C   0  0  0  0  0  0  0  0  0  0  0  0
    0.0000    0.0000    0.0000 O   0  0  0  0  0  0  0  0  0  0  0  0
    0.0000    0.0000    0.0000 C   0  0  0  0  0  0  0  0  0  0  0  0
    0.0000    0.0000    0.0000 C   0  0  0  0  0  0  0  0  0  0  0  0
    0.0000    0.0000    0.0000 C   0  0  0  0  0  0  0  0  0  0  0  0
    0.0000    0.0000    0.0000 O   0  0  0  0  0  0  0  0  0  0  0  0
    0.0000    0.0000    0.0000 C   0  0  0  0  0  0  0  0  0  0  0  0
    0.0000    0.0000    0.0000 C   0  0  0  0  0  0  0  0  0  0  0  0
    0.0000    0.0000    0.0000 C   0  0  0  0  0  0  0  0  0  0  0  0
    0.0000    0.0000    0.0000 N   0  0  0  0  0  0  0  0  0  0  0  0
    0.0000    0.0000    0.0000 C   0  0  0  0  0  0  0  0  0  0  0  0
    0.0000    0.0000    0.0000 C   0  0  0  0  0  0  0  0  0  0  0  0
    0.0000    0.0000    0.0000 C   0  0  0  0  0  0  0  0  0  0  0  0
    0.0000    0.0000    0.0000 C   0  0  0  0  0  0  0  0  0  0  0  0
    0.0000    0.0000    0.0000 C   0  0  0  0  0  0  0  0  0  0  0  0
    0.0000    0.0000    0.0000 C   0  0  0  0  0  0  0  0  0  0  0  0
    0.0000    0.0000    0.0000 C   0  0  0  0  0  0  0  0  0  0  0  0
    0.0000    0.0000    0.0000 C   0  0  0  0  0  0  0  0  0  0  0  0
    0.0000    0.0000    0.0000 Cl  0  0  0  0  0  0  0  0  0  0  0  0
    0.0000    0.0000    0.0000 C   0  0  0  0  0  0  0  0  0  0  0  0
    0.0000    0.0000    0.0000 C   0  0  0  0  0  0  0  0  0  0  0  0
  1  2  1  0
  2  3  2  0
  3  4  1  0
  4  5  2  0
  5  6  1  0
  6  7  1  0
  7  8  1  0
  8  9  1  0
  9 10  1  0
 10 11  1  0
 11 12  1  0
  8 13  1  0
 13 14  1  0
 14 15  1  0
 15 16  1  0
 16 17  1  0
 17 18  1  0
 18 19  2  0
 16 20  1  0
 20 21  2  0
 20 22  1  0
 22 23  1  0
 23 24  1  0
 24 25  1  0
 25 26  1  0
 26 27  1  0
 27 28  1  0
 28 29  2  0
 29 30  1  0
 30 31  2  0
 31 32  1  0
 32 33  2  0
 33 34  1  0
 33 35  1  0
 35 36  2  0
 18  2  1  0
 19  5  1  0
 24  7  1  0
 12 10  1  0
 19 15  1  0
 24 15  1  0
 36 30  1  0
M  END
>  <pIC50>  (360) 
9.62

>  <ChEMBL_ID>  (360) 
CHEMBL383896

>  <document_journal>  (360) 
J. Med. Chem.

>  <bao_endpoint>  (360) 
BAO_0000190

>  <potential_duplicate>  (360) 
False

>  <uo_units>  (360) 
UO_0000065

>  <canonical_smiles>  (360) 
Oc1ccc2C[C@H]3N(CC4CC4)CC[C@@]56[C@@H](Oc1c25)C(=O)CC[C@@]36NCC\C=C\c7ccc(Cl)cc7

>  <parent_molecule_chembl_id>  (360) 
CHEMBL383896

>  <assay_type>  (360) 
F

>  <src_id>  (360) 
1

>  <ligand_efficiency>  (360) 
None

>  <standard_flag>  (360) 
True

>  <molecule_chembl_id>  (360) 
CHEMBL383896

>  <target_organism>  (360) 
Homo sapiens

>  <standard_units>  (360) 
nM

>  <record_id>  (360) 
606882

>  <document_chembl_id>  (360) 
CHEMBL1137387

>  <bao_format>  (360) 
BAO_0000219

>  <data_validity_description>  (360) 
None

>  <activity_id>  (360) 
1774787

>  <standard_type>  (360) 
IC50

>  <target_chembl_id>  (360) 
CHEMBL233

>  <data_validity_comment>  (360) 
None

>  <published_value>  (360) 
0.24

>  <document_year>  (360) 
2006

>  <target_pref_name>  (360) 
Mu opioid receptor

>  <assay_chembl_id>  (360) 
CHEMBL907187

>  <standard_relation>  (360) 
=

>  <assay_description>  (360) 
Activity at human recombinant mu opioid receptor expressed in CHO cells assessed as stimulation of [35S]GTP-gamma-S binding

>  <published_relation>  (360) 
=

>  <standard_value>  (360) 
0.24

>  <qudt_units>  (360) 
http://www.openphacts.org/units/Nanomolar

>  <target_tax_id>  (360) 
9606

>  <bao_label>  (360) 
cell-based format

>  <published_units>  (360) 
nM

>  <pchembl_value>  (360) 
9.62

>  <published_type>  (360) 
IC50

>  <activity_comment>  (360) 
None

$$$$

     RDKit          

 36 42  0  0  0  0  0  0  0  0999 V2000
    0.0000    0.0000    0.0000 O   0  0  0  0  0  0  0  0  0  0  0  0
    0.0000    0.0000    0.0000 C   0  0  0  0  0  0  0  0  0  0  0  0
    0.0000    0.0000    0.0000 C   0  0  0  0  0  0  0  0  0  0  0  0
    0.0000    0.0000    0.0000 C   0  0  0  0  0  0  0  0  0  0  0  0
    0.0000    0.0000    0.0000 C   0  0  0  0  0  0  0  0  0  0  0  0
    0.0000    0.0000    0.0000 C   0  0  0  0  0  0  0  0  0  0  0  0
    0.0000    0.0000    0.0000 C   0  0  0  0  0  0  0  0  0  0  0  0
    0.0000    0.0000    0.0000 N   0  0  0  0  0  0  0  0  0  0  0  0
    0.0000    0.0000    0.0000 C   0  0  0  0  0  0  0  0  0  0  0  0
    0.0000    0.0000    0.0000 C   0  0  0  0  0  0  0  0  0  0  0  0
    0.0000    0.0000    0.0000 C   0  0  0  0  0  0  0  0  0  0  0  0
    0.0000    0.0000    0.0000 C   0  0  0  0  0  0  0  0  0  0  0  0
    0.0000    0.0000    0.0000 C   0  0  0  0  0  0  0  0  0  0  0  0
    0.0000    0.0000    0.0000 C   0  0  0  0  0  0  0  0  0  0  0  0
    0.0000    0.0000    0.0000 C   0  0  0  0  0  0  0  0  0  0  0  0
    0.0000    0.0000    0.0000 C   0  0  0  0  0  0  0  0  0  0  0  0
    0.0000    0.0000    0.0000 O   0  0  0  0  0  0  0  0  0  0  0  0
    0.0000    0.0000    0.0000 C   0  0  0  0  0  0  0  0  0  0  0  0
    0.0000    0.0000    0.0000 C   0  0  0  0  0  0  0  0  0  0  0  0
    0.0000    0.0000    0.0000 C   0  0  0  0  0  0  0  0  0  0  0  0
    0.0000    0.0000    0.0000 O   0  0  0  0  0  0  0  0  0  0  0  0
    0.0000    0.0000    0.0000 C   0  0  0  0  0  0  0  0  0  0  0  0
    0.0000    0.0000    0.0000 C   0  0  0  0  0  0  0  0  0  0  0  0
    0.0000    0.0000    0.0000 C   0  0  0  0  0  0  0  0  0  0  0  0
    0.0000    0.0000    0.0000 N   0  0  0  0  0  0  0  0  0  0  0  0
    0.0000    0.0000    0.0000 C   0  0  0  0  0  0  0  0  0  0  0  0
    0.0000    0.0000    0.0000 C   0  0  0  0  0  0  0  0  0  0  0  0
    0.0000    0.0000    0.0000 C   0  0  0  0  0  0  0  0  0  0  0  0
    0.0000    0.0000    0.0000 C   0  0  0  0  0  0  0  0  0  0  0  0
    0.0000    0.0000    0.0000 C   0  0  0  0  0  0  0  0  0  0  0  0
    0.0000    0.0000    0.0000 C   0  0  0  0  0  0  0  0  0  0  0  0
    0.0000    0.0000    0.0000 C   0  0  0  0  0  0  0  0  0  0  0  0
    0.0000    0.0000    0.0000 C   0  0  0  0  0  0  0  0  0  0  0  0
    0.0000    0.0000    0.0000 Cl  0  0  0  0  0  0  0  0  0  0  0  0
    0.0000    0.0000    0.0000 C   0  0  0  0  0  0  0  0  0  0  0  0
    0.0000    0.0000    0.0000 C   0  0  0  0  0  0  0  0  0  0  0  0
  1  2  1  0
  2  3  2  0
  3  4  1  0
  4  5  2  0
  5  6  1  0
  6  7  1  0
  7  8  1  0
  8  9  1  0
  9 10  1  0
 10 11  1  0
 11 12  1  0
  8 13  1  0
 13 14  1  0
 14 15  1  0
 15 16  1  0
 16 17  1  0
 17 18  1  0
 18 19  2  0
 16 20  1  0
 20 21  2  0
 20 22  1  0
 22 23  1  0
 23 24  1  0
 24 25  1  0
 25 26  1  0
 26 27  1  0
 27 28  2  0
 28 29  1  0
 29 30  1  0
 30 31  2  0
 31 32  1  0
 32 33  2  0
 33 34  1  0
 33 35  1  0
 35 36  2  0
 18  2  1  0
 19  5  1  0
 24  7  1  0
 12 10  1  0
 19 15  1  0
 24 15  1  0
 36 30  1  0
M  END
>  <pIC50>  (361) 
8.92

>  <ChEMBL_ID>  (361) 
CHEMBL216558

>  <document_journal>  (361) 
J. Med. Chem.

>  <bao_endpoint>  (361) 
BAO_0000190

>  <potential_duplicate>  (361) 
False

>  <uo_units>  (361) 
UO_0000065

>  <canonical_smiles>  (361) 
Oc1ccc2C[C@H]3N(CC4CC4)CC[C@@]56[C@@H](Oc1c25)C(=O)CC[C@@]36NC\C=C\Cc7ccc(Cl)cc7

>  <parent_molecule_chembl_id>  (361) 
CHEMBL216558

>  <assay_type>  (361) 
F

>  <src_id>  (361) 
1

>  <ligand_efficiency>  (361) 
None

>  <standard_flag>  (361) 
True

>  <molecule_chembl_id>  (361) 
CHEMBL216558

>  <target_organism>  (361) 
Homo sapiens

>  <standard_units>  (361) 
nM

>  <record_id>  (361) 
606881

>  <document_chembl_id>  (361) 
CHEMBL1137387

>  <bao_format>  (361) 
BAO_0000219

>  <data_validity_description>  (361) 
None

>  <activity_id>  (361) 
1774788

>  <standard_type>  (361) 
IC50

>  <target_chembl_id>  (361) 
CHEMBL233

>  <data_validity_comment>  (361) 
None

>  <published_value>  (361) 
1.21

>  <document_year>  (361) 
2006

>  <target_pref_name>  (361) 
Mu opioid receptor

>  <assay_chembl_id>  (361) 
CHEMBL907187

>  <standard_relation>  (361) 
=

>  <assay_description>  (361) 
Activity at human recombinant mu opioid receptor expressed in CHO cells assessed as stimulation of [35S]GTP-gamma-S binding

>  <published_relation>  (361) 
=

>  <standard_value>  (361) 
1.21

>  <qudt_units>  (361) 
http://www.openphacts.org/units/Nanomolar

>  <target_tax_id>  (361) 
9606

>  <bao_label>  (361) 
cell-based format

>  <published_units>  (361) 
nM

>  <pchembl_value>  (361) 
8.92

>  <published_type>  (361) 
IC50

>  <activity_comment>  (361) 
None

$$$$

     RDKit          

 37 43  0  0  0  0  0  0  0  0999 V2000
    0.0000    0.0000    0.0000 O   0  0  0  0  0  0  0  0  0  0  0  0
    0.0000    0.0000    0.0000 C   0  0  0  0  0  0  0  0  0  0  0  0
    0.0000    0.0000    0.0000 C   0  0  0  0  0  0  0  0  0  0  0  0
    0.0000    0.0000    0.0000 C   0  0  0  0  0  0  0  0  0  0  0  0
    0.0000    0.0000    0.0000 C   0  0  0  0  0  0  0  0  0  0  0  0
    0.0000    0.0000    0.0000 C   0  0  0  0  0  0  0  0  0  0  0  0
    0.0000    0.0000    0.0000 C   0  0  0  0  0  0  0  0  0  0  0  0
    0.0000    0.0000    0.0000 N   0  0  0  0  0  0  0  0  0  0  0  0
    0.0000    0.0000    0.0000 C   0  0  0  0  0  0  0  0  0  0  0  0
    0.0000    0.0000    0.0000 C   0  0  0  0  0  0  0  0  0  0  0  0
    0.0000    0.0000    0.0000 C   0  0  0  0  0  0  0  0  0  0  0  0
    0.0000    0.0000    0.0000 C   0  0  0  0  0  0  0  0  0  0  0  0
    0.0000    0.0000    0.0000 C   0  0  0  0  0  0  0  0  0  0  0  0
    0.0000    0.0000    0.0000 C   0  0  0  0  0  0  0  0  0  0  0  0
    0.0000    0.0000    0.0000 C   0  0  0  0  0  0  0  0  0  0  0  0
    0.0000    0.0000    0.0000 C   0  0  0  0  0  0  0  0  0  0  0  0
    0.0000    0.0000    0.0000 O   0  0  0  0  0  0  0  0  0  0  0  0
    0.0000    0.0000    0.0000 C   0  0  0  0  0  0  0  0  0  0  0  0
    0.0000    0.0000    0.0000 C   0  0  0  0  0  0  0  0  0  0  0  0
    0.0000    0.0000    0.0000 C   0  0  0  0  0  0  0  0  0  0  0  0
    0.0000    0.0000    0.0000 O   0  0  0  0  0  0  0  0  0  0  0  0
    0.0000    0.0000    0.0000 C   0  0  0  0  0  0  0  0  0  0  0  0
    0.0000    0.0000    0.0000 C   0  0  0  0  0  0  0  0  0  0  0  0
    0.0000    0.0000    0.0000 C   0  0  0  0  0  0  0  0  0  0  0  0
    0.0000    0.0000    0.0000 N   0  0  0  0  0  0  0  0  0  0  0  0
    0.0000    0.0000    0.0000 C   0  0  0  0  0  0  0  0  0  0  0  0
    0.0000    0.0000    0.0000 O   0  0  0  0  0  0  0  0  0  0  0  0
    0.0000    0.0000    0.0000 C   0  0  0  0  0  0  0  0  0  0  0  0
    0.0000    0.0000    0.0000 C   0  0  0  0  0  0  0  0  0  0  0  0
    0.0000    0.0000    0.0000 C   0  0  0  0  0  0  0  0  0  0  0  0
    0.0000    0.0000    0.0000 C   0  0  0  0  0  0  0  0  0  0  0  0
    0.0000    0.0000    0.0000 C   0  0  0  0  0  0  0  0  0  0  0  0
    0.0000    0.0000    0.0000 C   0  0  0  0  0  0  0  0  0  0  0  0
    0.0000    0.0000    0.0000 C   0  0  0  0  0  0  0  0  0  0  0  0
    0.0000    0.0000    0.0000 Cl  0  0  0  0  0  0  0  0  0  0  0  0
    0.0000    0.0000    0.0000 C   0  0  0  0  0  0  0  0  0  0  0  0
    0.0000    0.0000    0.0000 C   0  0  0  0  0  0  0  0  0  0  0  0
  1  2  1  0
  2  3  2  0
  3  4  1  0
  4  5  2  0
  5  6  1  0
  6  7  1  0
  7  8  1  0
  8  9  1  0
  9 10  1  0
 10 11  1  0
 11 12  1  0
  8 13  1  0
 13 14  1  0
 14 15  1  0
 15 16  1  0
 16 17  1  0
 17 18  1  0
 18 19  2  0
 16 20  1  0
 20 21  2  0
 20 22  1  0
 22 23  1  0
 23 24  1  0
 24 25  1  0
 25 26  1  0
 26 27  2  0
 26 28  1  0
 28 29  1  0
 29 30  1  0
 30 31  1  0
 31 32  2  0
 32 33  1  0
 33 34  2  0
 34 35  1  0
 34 36  1  0
 36 37  2  0
 18  2  1  0
 19  5  1  0
 24  7  1  0
 12 10  1  0
 19 15  1  0
 24 15  1  0
 37 31  1  0
M  END
>  <pIC50>  (362) 
9.06

>  <ChEMBL_ID>  (362) 
CHEMBL217479

>  <document_journal>  (362) 
J. Med. Chem.

>  <bao_endpoint>  (362) 
BAO_0000190

>  <potential_duplicate>  (362) 
False

>  <uo_units>  (362) 
UO_0000065

>  <canonical_smiles>  (362) 
Oc1ccc2C[C@H]3N(CC4CC4)CC[C@@]56[C@@H](Oc1c25)C(=O)CC[C@@]36NC(=O)CCCc7ccc(Cl)cc7

>  <parent_molecule_chembl_id>  (362) 
CHEMBL217479

>  <assay_type>  (362) 
F

>  <src_id>  (362) 
1

>  <ligand_efficiency>  (362) 
None

>  <standard_flag>  (362) 
True

>  <molecule_chembl_id>  (362) 
CHEMBL217479

>  <target_organism>  (362) 
Homo sapiens

>  <standard_units>  (362) 
nM

>  <record_id>  (362) 
606880

>  <document_chembl_id>  (362) 
CHEMBL1137387

>  <bao_format>  (362) 
BAO_0000219

>  <data_validity_description>  (362) 
None

>  <activity_id>  (362) 
1774789

>  <standard_type>  (362) 
IC50

>  <target_chembl_id>  (362) 
CHEMBL233

>  <data_validity_comment>  (362) 
None

>  <published_value>  (362) 
0.87

>  <document_year>  (362) 
2006

>  <target_pref_name>  (362) 
Mu opioid receptor

>  <assay_chembl_id>  (362) 
CHEMBL907187

>  <standard_relation>  (362) 
=

>  <assay_description>  (362) 
Activity at human recombinant mu opioid receptor expressed in CHO cells assessed as stimulation of [35S]GTP-gamma-S binding

>  <published_relation>  (362) 
=

>  <standard_value>  (362) 
0.87

>  <qudt_units>  (362) 
http://www.openphacts.org/units/Nanomolar

>  <target_tax_id>  (362) 
9606

>  <bao_label>  (362) 
cell-based format

>  <published_units>  (362) 
nM

>  <pchembl_value>  (362) 
9.06

>  <published_type>  (362) 
IC50

>  <activity_comment>  (362) 
None

$$$$

     RDKit          

 37 43  0  0  0  0  0  0  0  0999 V2000
    0.0000    0.0000    0.0000 O   0  0  0  0  0  0  0  0  0  0  0  0
    0.0000    0.0000    0.0000 C   0  0  0  0  0  0  0  0  0  0  0  0
    0.0000    0.0000    0.0000 C   0  0  0  0  0  0  0  0  0  0  0  0
    0.0000    0.0000    0.0000 C   0  0  0  0  0  0  0  0  0  0  0  0
    0.0000    0.0000    0.0000 C   0  0  0  0  0  0  0  0  0  0  0  0
    0.0000    0.0000    0.0000 C   0  0  0  0  0  0  0  0  0  0  0  0
    0.0000    0.0000    0.0000 C   0  0  0  0  0  0  0  0  0  0  0  0
    0.0000    0.0000    0.0000 N   0  0  0  0  0  0  0  0  0  0  0  0
    0.0000    0.0000    0.0000 C   0  0  0  0  0  0  0  0  0  0  0  0
    0.0000    0.0000    0.0000 C   0  0  0  0  0  0  0  0  0  0  0  0
    0.0000    0.0000    0.0000 C   0  0  0  0  0  0  0  0  0  0  0  0
    0.0000    0.0000    0.0000 C   0  0  0  0  0  0  0  0  0  0  0  0
    0.0000    0.0000    0.0000 C   0  0  0  0  0  0  0  0  0  0  0  0
    0.0000    0.0000    0.0000 C   0  0  0  0  0  0  0  0  0  0  0  0
    0.0000    0.0000    0.0000 C   0  0  0  0  0  0  0  0  0  0  0  0
    0.0000    0.0000    0.0000 C   0  0  0  0  0  0  0  0  0  0  0  0
    0.0000    0.0000    0.0000 O   0  0  0  0  0  0  0  0  0  0  0  0
    0.0000    0.0000    0.0000 C   0  0  0  0  0  0  0  0  0  0  0  0
    0.0000    0.0000    0.0000 C   0  0  0  0  0  0  0  0  0  0  0  0
    0.0000    0.0000    0.0000 C   0  0  0  0  0  0  0  0  0  0  0  0
    0.0000    0.0000    0.0000 O   0  0  0  0  0  0  0  0  0  0  0  0
    0.0000    0.0000    0.0000 C   0  0  0  0  0  0  0  0  0  0  0  0
    0.0000    0.0000    0.0000 C   0  0  0  0  0  0  0  0  0  0  0  0
    0.0000    0.0000    0.0000 C   0  0  0  0  0  0  0  0  0  0  0  0
    0.0000    0.0000    0.0000 N   0  0  0  0  0  0  0  0  0  0  0  0
    0.0000    0.0000    0.0000 C   0  0  0  0  0  0  0  0  0  0  0  0
    0.0000    0.0000    0.0000 O   0  0  0  0  0  0  0  0  0  0  0  0
    0.0000    0.0000    0.0000 C   0  0  0  0  0  0  0  0  0  0  0  0
    0.0000    0.0000    0.0000 C   0  0  0  0  0  0  0  0  0  0  0  0
    0.0000    0.0000    0.0000 C   0  0  0  0  0  0  0  0  0  0  0  0
    0.0000    0.0000    0.0000 C   0  0  0  0  0  0  0  0  0  0  0  0
    0.0000    0.0000    0.0000 C   0  0  0  0  0  0  0  0  0  0  0  0
    0.0000    0.0000    0.0000 C   0  0  0  0  0  0  0  0  0  0  0  0
    0.0000    0.0000    0.0000 C   0  0  0  0  0  0  0  0  0  0  0  0
    0.0000    0.0000    0.0000 Cl  0  0  0  0  0  0  0  0  0  0  0  0
    0.0000    0.0000    0.0000 C   0  0  0  0  0  0  0  0  0  0  0  0
    0.0000    0.0000    0.0000 C   0  0  0  0  0  0  0  0  0  0  0  0
  1  2  1  0
  2  3  2  0
  3  4  1  0
  4  5  2  0
  5  6  1  0
  6  7  1  0
  7  8  1  0
  8  9  1  0
  9 10  1  0
 10 11  1  0
 11 12  1  0
  8 13  1  0
 13 14  1  0
 14 15  1  0
 15 16  1  0
 16 17  1  0
 17 18  1  0
 18 19  2  0
 16 20  1  0
 20 21  2  0
 20 22  1  0
 22 23  1  0
 23 24  1  0
 24 25  1  0
 25 26  1  0
 26 27  2  0
 26 28  1  0
 28 29  1  0
 29 30  2  0
 30 31  1  0
 31 32  2  0
 32 33  1  0
 33 34  2  0
 34 35  1  0
 34 36  1  0
 36 37  2  0
 18  2  1  0
 19  5  1  0
 24  7  1  0
 12 10  1  0
 19 15  1  0
 24 15  1  0
 37 31  1  0
M  END
>  <pIC50>  (363) 
8.74

>  <ChEMBL_ID>  (363) 
CHEMBL217710

>  <document_journal>  (363) 
J. Med. Chem.

>  <bao_endpoint>  (363) 
BAO_0000190

>  <potential_duplicate>  (363) 
False

>  <uo_units>  (363) 
UO_0000065

>  <canonical_smiles>  (363) 
Oc1ccc2C[C@H]3N(CC4CC4)CC[C@@]56[C@@H](Oc1c25)C(=O)CC[C@@]36NC(=O)C\C=C\c7ccc(Cl)cc7

>  <parent_molecule_chembl_id>  (363) 
CHEMBL217710

>  <assay_type>  (363) 
F

>  <src_id>  (363) 
1

>  <ligand_efficiency>  (363) 
None

>  <standard_flag>  (363) 
True

>  <molecule_chembl_id>  (363) 
CHEMBL217710

>  <target_organism>  (363) 
Homo sapiens

>  <standard_units>  (363) 
nM

>  <record_id>  (363) 
606879

>  <document_chembl_id>  (363) 
CHEMBL1137387

>  <bao_format>  (363) 
BAO_0000219

>  <data_validity_description>  (363) 
None

>  <activity_id>  (363) 
1774790

>  <standard_type>  (363) 
IC50

>  <target_chembl_id>  (363) 
CHEMBL233

>  <data_validity_comment>  (363) 
None

>  <published_value>  (363) 
1.84

>  <document_year>  (363) 
2006

>  <target_pref_name>  (363) 
Mu opioid receptor

>  <assay_chembl_id>  (363) 
CHEMBL907187

>  <standard_relation>  (363) 
=

>  <assay_description>  (363) 
Activity at human recombinant mu opioid receptor expressed in CHO cells assessed as stimulation of [35S]GTP-gamma-S binding

>  <published_relation>  (363) 
=

>  <standard_value>  (363) 
1.84

>  <qudt_units>  (363) 
http://www.openphacts.org/units/Nanomolar

>  <target_tax_id>  (363) 
9606

>  <bao_label>  (363) 
cell-based format

>  <published_units>  (363) 
nM

>  <pchembl_value>  (363) 
8.74

>  <published_type>  (363) 
IC50

>  <activity_comment>  (363) 
None

$$$$

     RDKit          

 35 41  0  0  0  0  0  0  0  0999 V2000
    0.0000    0.0000    0.0000 O   0  0  0  0  0  0  0  0  0  0  0  0
    0.0000    0.0000    0.0000 C   0  0  0  0  0  0  0  0  0  0  0  0
    0.0000    0.0000    0.0000 C   0  0  0  0  0  0  0  0  0  0  0  0
    0.0000    0.0000    0.0000 C   0  0  0  0  0  0  0  0  0  0  0  0
    0.0000    0.0000    0.0000 C   0  0  0  0  0  0  0  0  0  0  0  0
    0.0000    0.0000    0.0000 C   0  0  0  0  0  0  0  0  0  0  0  0
    0.0000    0.0000    0.0000 C   0  0  0  0  0  0  0  0  0  0  0  0
    0.0000    0.0000    0.0000 N   0  0  0  0  0  0  0  0  0  0  0  0
    0.0000    0.0000    0.0000 C   0  0  0  0  0  0  0  0  0  0  0  0
    0.0000    0.0000    0.0000 C   0  0  0  0  0  0  0  0  0  0  0  0
    0.0000    0.0000    0.0000 C   0  0  0  0  0  0  0  0  0  0  0  0
    0.0000    0.0000    0.0000 C   0  0  0  0  0  0  0  0  0  0  0  0
    0.0000    0.0000    0.0000 C   0  0  0  0  0  0  0  0  0  0  0  0
    0.0000    0.0000    0.0000 C   0  0  0  0  0  0  0  0  0  0  0  0
    0.0000    0.0000    0.0000 C   0  0  0  0  0  0  0  0  0  0  0  0
    0.0000    0.0000    0.0000 C   0  0  0  0  0  0  0  0  0  0  0  0
    0.0000    0.0000    0.0000 O   0  0  0  0  0  0  0  0  0  0  0  0
    0.0000    0.0000    0.0000 C   0  0  0  0  0  0  0  0  0  0  0  0
    0.0000    0.0000    0.0000 C   0  0  0  0  0  0  0  0  0  0  0  0
    0.0000    0.0000    0.0000 C   0  0  0  0  0  0  0  0  0  0  0  0
    0.0000    0.0000    0.0000 O   0  0  0  0  0  0  0  0  0  0  0  0
    0.0000    0.0000    0.0000 C   0  0  0  0  0  0  0  0  0  0  0  0
    0.0000    0.0000    0.0000 C   0  0  0  0  0  0  0  0  0  0  0  0
    0.0000    0.0000    0.0000 C   0  0  0  0  0  0  0  0  0  0  0  0
    0.0000    0.0000    0.0000 N   0  0  0  0  0  0  0  0  0  0  0  0
    0.0000    0.0000    0.0000 C   0  0  0  0  0  0  0  0  0  0  0  0
    0.0000    0.0000    0.0000 C   0  0  0  0  0  0  0  0  0  0  0  0
    0.0000    0.0000    0.0000 C   0  0  0  0  0  0  0  0  0  0  0  0
    0.0000    0.0000    0.0000 C   0  0  0  0  0  0  0  0  0  0  0  0
    0.0000    0.0000    0.0000 C   0  0  0  0  0  0  0  0  0  0  0  0
    0.0000    0.0000    0.0000 C   0  0  0  0  0  0  0  0  0  0  0  0
    0.0000    0.0000    0.0000 C   0  0  0  0  0  0  0  0  0  0  0  0
    0.0000    0.0000    0.0000 Cl  0  0  0  0  0  0  0  0  0  0  0  0
    0.0000    0.0000    0.0000 C   0  0  0  0  0  0  0  0  0  0  0  0
    0.0000    0.0000    0.0000 C   0  0  0  0  0  0  0  0  0  0  0  0
  1  2  1  0
  2  3  2  0
  3  4  1  0
  4  5  2  0
  5  6  1  0
  6  7  1  0
  7  8  1  0
  8  9  1  0
  9 10  1  0
 10 11  1  0
 11 12  1  0
  8 13  1  0
 13 14  1  0
 14 15  1  0
 15 16  1  0
 16 17  1  0
 17 18  1  0
 18 19  2  0
 16 20  1  0
 20 21  2  0
 20 22  1  0
 22 23  1  0
 23 24  1  0
 24 25  1  0
 25 26  1  0
 26 27  1  0
 27 28  1  0
 28 29  1  0
 29 30  2  0
 30 31  1  0
 31 32  2  0
 32 33  1  0
 32 34  1  0
 34 35  2  0
 18  2  1  0
 19  5  1  0
 24  7  1  0
 12 10  1  0
 19 15  1  0
 24 15  1  0
 35 29  1  0
M  END
>  <pIC50>  (364) 
10.9

>  <ChEMBL_ID>  (364) 
CHEMBL443311

>  <document_journal>  (364) 
J. Med. Chem.

>  <bao_endpoint>  (364) 
BAO_0000190

>  <potential_duplicate>  (364) 
False

>  <uo_units>  (364) 
UO_0000065

>  <canonical_smiles>  (364) 
Oc1ccc2C[C@H]3N(CC4CC4)CC[C@@]56[C@@H](Oc1c25)C(=O)CC[C@@]36NCCCc7ccc(Cl)cc7

>  <parent_molecule_chembl_id>  (364) 
CHEMBL443311

>  <assay_type>  (364) 
F

>  <src_id>  (364) 
1

>  <ligand_efficiency>  (364) 
None

>  <standard_flag>  (364) 
True

>  <molecule_chembl_id>  (364) 
CHEMBL443311

>  <target_organism>  (364) 
Homo sapiens

>  <standard_units>  (364) 
nM

>  <record_id>  (364) 
606878

>  <document_chembl_id>  (364) 
CHEMBL1137387

>  <bao_format>  (364) 
BAO_0000219

>  <data_validity_description>  (364) 
None

>  <activity_id>  (364) 
1774791

>  <standard_type>  (364) 
IC50

>  <target_chembl_id>  (364) 
CHEMBL233

>  <data_validity_comment>  (364) 
None

>  <published_value>  (364) 
0.0125

>  <document_year>  (364) 
2006

>  <target_pref_name>  (364) 
Mu opioid receptor

>  <assay_chembl_id>  (364) 
CHEMBL907187

>  <standard_relation>  (364) 
=

>  <assay_description>  (364) 
Activity at human recombinant mu opioid receptor expressed in CHO cells assessed as stimulation of [35S]GTP-gamma-S binding

>  <published_relation>  (364) 
=

>  <standard_value>  (364) 
0.0125

>  <qudt_units>  (364) 
http://www.openphacts.org/units/Nanomolar

>  <target_tax_id>  (364) 
9606

>  <bao_label>  (364) 
cell-based format

>  <published_units>  (364) 
nM

>  <pchembl_value>  (364) 
10.9

>  <published_type>  (364) 
IC50

>  <activity_comment>  (364) 
None

$$$$

     RDKit          

 36 42  0  0  0  0  0  0  0  0999 V2000
    0.0000    0.0000    0.0000 O   0  0  0  0  0  0  0  0  0  0  0  0
    0.0000    0.0000    0.0000 C   0  0  0  0  0  0  0  0  0  0  0  0
    0.0000    0.0000    0.0000 C   0  0  0  0  0  0  0  0  0  0  0  0
    0.0000    0.0000    0.0000 C   0  0  0  0  0  0  0  0  0  0  0  0
    0.0000    0.0000    0.0000 C   0  0  0  0  0  0  0  0  0  0  0  0
    0.0000    0.0000    0.0000 C   0  0  0  0  0  0  0  0  0  0  0  0
    0.0000    0.0000    0.0000 C   0  0  0  0  0  0  0  0  0  0  0  0
    0.0000    0.0000    0.0000 N   0  0  0  0  0  0  0  0  0  0  0  0
    0.0000    0.0000    0.0000 C   0  0  0  0  0  0  0  0  0  0  0  0
    0.0000    0.0000    0.0000 C   0  0  0  0  0  0  0  0  0  0  0  0
    0.0000    0.0000    0.0000 C   0  0  0  0  0  0  0  0  0  0  0  0
    0.0000    0.0000    0.0000 C   0  0  0  0  0  0  0  0  0  0  0  0
    0.0000    0.0000    0.0000 C   0  0  0  0  0  0  0  0  0  0  0  0
    0.0000    0.0000    0.0000 C   0  0  0  0  0  0  0  0  0  0  0  0
    0.0000    0.0000    0.0000 C   0  0  0  0  0  0  0  0  0  0  0  0
    0.0000    0.0000    0.0000 C   0  0  0  0  0  0  0  0  0  0  0  0
    0.0000    0.0000    0.0000 O   0  0  0  0  0  0  0  0  0  0  0  0
    0.0000    0.0000    0.0000 C   0  0  0  0  0  0  0  0  0  0  0  0
    0.0000    0.0000    0.0000 C   0  0  0  0  0  0  0  0  0  0  0  0
    0.0000    0.0000    0.0000 C   0  0  0  0  0  0  0  0  0  0  0  0
    0.0000    0.0000    0.0000 O   0  0  0  0  0  0  0  0  0  0  0  0
    0.0000    0.0000    0.0000 C   0  0  0  0  0  0  0  0  0  0  0  0
    0.0000    0.0000    0.0000 C   0  0  0  0  0  0  0  0  0  0  0  0
    0.0000    0.0000    0.0000 C   0  0  0  0  0  0  0  0  0  0  0  0
    0.0000    0.0000    0.0000 N   0  0  0  0  0  0  0  0  0  0  0  0
    0.0000    0.0000    0.0000 C   0  0  0  0  0  0  0  0  0  0  0  0
    0.0000    0.0000    0.0000 O   0  0  0  0  0  0  0  0  0  0  0  0
    0.0000    0.0000    0.0000 C   0  0  0  0  0  0  0  0  0  0  0  0
    0.0000    0.0000    0.0000 C   0  0  0  0  0  0  0  0  0  0  0  0
    0.0000    0.0000    0.0000 C   0  0  0  0  0  0  0  0  0  0  0  0
    0.0000    0.0000    0.0000 C   0  0  0  0  0  0  0  0  0  0  0  0
    0.0000    0.0000    0.0000 C   0  0  0  0  0  0  0  0  0  0  0  0
    0.0000    0.0000    0.0000 C   0  0  0  0  0  0  0  0  0  0  0  0
    0.0000    0.0000    0.0000 Cl  0  0  0  0  0  0  0  0  0  0  0  0
    0.0000    0.0000    0.0000 C   0  0  0  0  0  0  0  0  0  0  0  0
    0.0000    0.0000    0.0000 C   0  0  0  0  0  0  0  0  0  0  0  0
  1  2  1  0
  2  3  2  0
  3  4  1  0
  4  5  2  0
  5  6  1  0
  6  7  1  0
  7  8  1  0
  8  9  1  0
  9 10  1  0
 10 11  1  0
 11 12  1  0
  8 13  1  0
 13 14  1  0
 14 15  1  0
 15 16  1  0
 16 17  1  0
 17 18  1  0
 18 19  2  0
 16 20  1  0
 20 21  2  0
 20 22  1  0
 22 23  1  0
 23 24  1  0
 24 25  1  0
 25 26  1  0
 26 27  2  0
 26 28  1  0
 28 29  1  0
 29 30  1  0
 30 31  2  0
 31 32  1  0
 32 33  2  0
 33 34  1  0
 33 35  1  0
 35 36  2  0
 18  2  1  0
 19  5  1  0
 24  7  1  0
 12 10  1  0
 19 15  1  0
 24 15  1  0
 36 30  1  0
M  END
>  <pIC50>  (365) 
10.55

>  <ChEMBL_ID>  (365) 
CHEMBL267027

>  <document_journal>  (365) 
J. Med. Chem.

>  <bao_endpoint>  (365) 
BAO_0000190

>  <potential_duplicate>  (365) 
False

>  <uo_units>  (365) 
UO_0000065

>  <canonical_smiles>  (365) 
Oc1ccc2C[C@H]3N(CC4CC4)CC[C@@]56[C@@H](Oc1c25)C(=O)CC[C@@]36NC(=O)CCc7ccc(Cl)cc7

>  <parent_molecule_chembl_id>  (365) 
CHEMBL267027

>  <assay_type>  (365) 
F

>  <src_id>  (365) 
1

>  <ligand_efficiency>  (365) 
None

>  <standard_flag>  (365) 
True

>  <molecule_chembl_id>  (365) 
CHEMBL267027

>  <target_organism>  (365) 
Homo sapiens

>  <standard_units>  (365) 
nM

>  <record_id>  (365) 
606876

>  <document_chembl_id>  (365) 
CHEMBL1137387

>  <bao_format>  (365) 
BAO_0000219

>  <data_validity_description>  (365) 
None

>  <activity_id>  (365) 
1774793

>  <standard_type>  (365) 
IC50

>  <target_chembl_id>  (365) 
CHEMBL233

>  <data_validity_comment>  (365) 
None

>  <published_value>  (365) 
0.028

>  <document_year>  (365) 
2006

>  <target_pref_name>  (365) 
Mu opioid receptor

>  <assay_chembl_id>  (365) 
CHEMBL907187

>  <standard_relation>  (365) 
=

>  <assay_description>  (365) 
Activity at human recombinant mu opioid receptor expressed in CHO cells assessed as stimulation of [35S]GTP-gamma-S binding

>  <published_relation>  (365) 
=

>  <standard_value>  (365) 
0.028

>  <qudt_units>  (365) 
http://www.openphacts.org/units/Nanomolar

>  <target_tax_id>  (365) 
9606

>  <bao_label>  (365) 
cell-based format

>  <published_units>  (365) 
nM

>  <pchembl_value>  (365) 
10.55

>  <published_type>  (365) 
IC50

>  <activity_comment>  (365) 
None

$$$$

     RDKit          

 36 42  0  0  0  0  0  0  0  0999 V2000
    0.0000    0.0000    0.0000 O   0  0  0  0  0  0  0  0  0  0  0  0
    0.0000    0.0000    0.0000 C   0  0  0  0  0  0  0  0  0  0  0  0
    0.0000    0.0000    0.0000 C   0  0  0  0  0  0  0  0  0  0  0  0
    0.0000    0.0000    0.0000 C   0  0  0  0  0  0  0  0  0  0  0  0
    0.0000    0.0000    0.0000 C   0  0  0  0  0  0  0  0  0  0  0  0
    0.0000    0.0000    0.0000 C   0  0  0  0  0  0  0  0  0  0  0  0
    0.0000    0.0000    0.0000 C   0  0  0  0  0  0  0  0  0  0  0  0
    0.0000    0.0000    0.0000 N   0  0  0  0  0  0  0  0  0  0  0  0
    0.0000    0.0000    0.0000 C   0  0  0  0  0  0  0  0  0  0  0  0
    0.0000    0.0000    0.0000 C   0  0  0  0  0  0  0  0  0  0  0  0
    0.0000    0.0000    0.0000 C   0  0  0  0  0  0  0  0  0  0  0  0
    0.0000    0.0000    0.0000 C   0  0  0  0  0  0  0  0  0  0  0  0
    0.0000    0.0000    0.0000 C   0  0  0  0  0  0  0  0  0  0  0  0
    0.0000    0.0000    0.0000 C   0  0  0  0  0  0  0  0  0  0  0  0
    0.0000    0.0000    0.0000 C   0  0  0  0  0  0  0  0  0  0  0  0
    0.0000    0.0000    0.0000 C   0  0  0  0  0  0  0  0  0  0  0  0
    0.0000    0.0000    0.0000 O   0  0  0  0  0  0  0  0  0  0  0  0
    0.0000    0.0000    0.0000 C   0  0  0  0  0  0  0  0  0  0  0  0
    0.0000    0.0000    0.0000 C   0  0  0  0  0  0  0  0  0  0  0  0
    0.0000    0.0000    0.0000 C   0  0  0  0  0  0  0  0  0  0  0  0
    0.0000    0.0000    0.0000 O   0  0  0  0  0  0  0  0  0  0  0  0
    0.0000    0.0000    0.0000 C   0  0  0  0  0  0  0  0  0  0  0  0
    0.0000    0.0000    0.0000 C   0  0  0  0  0  0  0  0  0  0  0  0
    0.0000    0.0000    0.0000 C   0  0  0  0  0  0  0  0  0  0  0  0
    0.0000    0.0000    0.0000 N   0  0  0  0  0  0  0  0  0  0  0  0
    0.0000    0.0000    0.0000 C   0  0  0  0  0  0  0  0  0  0  0  0
    0.0000    0.0000    0.0000 O   0  0  0  0  0  0  0  0  0  0  0  0
    0.0000    0.0000    0.0000 C   0  0  0  0  0  0  0  0  0  0  0  0
    0.0000    0.0000    0.0000 C   0  0  0  0  0  0  0  0  0  0  0  0
    0.0000    0.0000    0.0000 C   0  0  0  0  0  0  0  0  0  0  0  0
    0.0000    0.0000    0.0000 C   0  0  0  0  0  0  0  0  0  0  0  0
    0.0000    0.0000    0.0000 C   0  0  0  0  0  0  0  0  0  0  0  0
    0.0000    0.0000    0.0000 C   0  0  0  0  0  0  0  0  0  0  0  0
    0.0000    0.0000    0.0000 Cl  0  0  0  0  0  0  0  0  0  0  0  0
    0.0000    0.0000    0.0000 C   0  0  0  0  0  0  0  0  0  0  0  0
    0.0000    0.0000    0.0000 C   0  0  0  0  0  0  0  0  0  0  0  0
  1  2  1  0
  2  3  2  0
  3  4  1  0
  4  5  2  0
  5  6  1  0
  6  7  1  0
  7  8  1  0
  8  9  1  0
  9 10  1  0
 10 11  1  0
 11 12  1  0
  8 13  1  0
 13 14  1  0
 14 15  1  0
 15 16  1  0
 16 17  1  0
 17 18  1  0
 18 19  2  0
 16 20  1  0
 20 21  2  0
 20 22  1  0
 22 23  1  0
 23 24  1  0
 24 25  1  0
 25 26  1  0
 26 27  2  0
 26 28  1  0
 28 29  2  0
 29 30  1  0
 30 31  2  0
 31 32  1  0
 32 33  2  0
 33 34  1  0
 33 35  1  0
 35 36  2  0
 18  2  1  0
 19  5  1  0
 24  7  1  0
 12 10  1  0
 19 15  1  0
 24 15  1  0
 36 30  1  0
M  END
>  <pIC50>  (366) 
9.28

>  <ChEMBL_ID>  (366) 
CHEMBL386492

>  <document_journal>  (366) 
J. Med. Chem.

>  <bao_endpoint>  (366) 
BAO_0000190

>  <potential_duplicate>  (366) 
False

>  <uo_units>  (366) 
UO_0000065

>  <canonical_smiles>  (366) 
Oc1ccc2C[C@H]3N(CC4CC4)CC[C@@]56[C@@H](Oc1c25)C(=O)CC[C@@]36NC(=O)\C=C\c7ccc(Cl)cc7

>  <parent_molecule_chembl_id>  (366) 
CHEMBL386492

>  <assay_type>  (366) 
F

>  <src_id>  (366) 
1

>  <ligand_efficiency>  (366) 
None

>  <standard_flag>  (366) 
True

>  <molecule_chembl_id>  (366) 
CHEMBL386492

>  <target_organism>  (366) 
Homo sapiens

>  <standard_units>  (366) 
nM

>  <record_id>  (366) 
606875

>  <document_chembl_id>  (366) 
CHEMBL1137387

>  <bao_format>  (366) 
BAO_0000219

>  <data_validity_description>  (366) 
None

>  <activity_id>  (366) 
1774794

>  <standard_type>  (366) 
IC50

>  <target_chembl_id>  (366) 
CHEMBL233

>  <data_validity_comment>  (366) 
None

>  <published_value>  (366) 
0.53

>  <document_year>  (366) 
2006

>  <target_pref_name>  (366) 
Mu opioid receptor

>  <assay_chembl_id>  (366) 
CHEMBL907187

>  <standard_relation>  (366) 
=

>  <assay_description>  (366) 
Activity at human recombinant mu opioid receptor expressed in CHO cells assessed as stimulation of [35S]GTP-gamma-S binding

>  <published_relation>  (366) 
=

>  <standard_value>  (366) 
0.53

>  <qudt_units>  (366) 
http://www.openphacts.org/units/Nanomolar

>  <target_tax_id>  (366) 
9606

>  <bao_label>  (366) 
cell-based format

>  <published_units>  (366) 
nM

>  <pchembl_value>  (366) 
9.28

>  <published_type>  (366) 
IC50

>  <activity_comment>  (366) 
None

$$$$

     RDKit          

 35 41  0  0  0  0  0  0  0  0999 V2000
    0.0000    0.0000    0.0000 C   0  0  0  0  0  0  0  0  0  0  0  0
    0.0000    0.0000    0.0000 O   0  0  0  0  0  0  0  0  0  0  0  0
    0.0000    0.0000    0.0000 C   0  0  0  0  0  0  0  0  0  0  0  0
    0.0000    0.0000    0.0000 C   0  0  0  0  0  0  0  0  0  0  0  0
    0.0000    0.0000    0.0000 C   0  0  0  0  0  0  0  0  0  0  0  0
    0.0000    0.0000    0.0000 C   0  0  0  0  0  0  0  0  0  0  0  0
    0.0000    0.0000    0.0000 C   0  0  0  0  0  0  0  0  0  0  0  0
    0.0000    0.0000    0.0000 C   0  0  0  0  0  0  0  0  0  0  0  0
    0.0000    0.0000    0.0000 N   0  0  0  0  0  0  0  0  0  0  0  0
    0.0000    0.0000    0.0000 C   0  0  0  0  0  0  0  0  0  0  0  0
    0.0000    0.0000    0.0000 C   0  0  0  0  0  0  0  0  0  0  0  0
    0.0000    0.0000    0.0000 C   0  0  0  0  0  0  0  0  0  0  0  0
    0.0000    0.0000    0.0000 C   0  0  0  0  0  0  0  0  0  0  0  0
    0.0000    0.0000    0.0000 C   0  0  0  0  0  0  0  0  0  0  0  0
    0.0000    0.0000    0.0000 C   0  0  0  0  0  0  0  0  0  0  0  0
    0.0000    0.0000    0.0000 C   0  0  0  0  0  0  0  0  0  0  0  0
    0.0000    0.0000    0.0000 C   0  0  0  0  0  0  0  0  0  0  0  0
    0.0000    0.0000    0.0000 O   0  0  0  0  0  0  0  0  0  0  0  0
    0.0000    0.0000    0.0000 C   0  0  0  0  0  0  0  0  0  0  0  0
    0.0000    0.0000    0.0000 C   0  0  0  0  0  0  0  0  0  0  0  0
    0.0000    0.0000    0.0000 C   0  0  0  0  0  0  0  0  0  0  0  0
    0.0000    0.0000    0.0000 O   0  0  0  0  0  0  0  0  0  0  0  0
    0.0000    0.0000    0.0000 C   0  0  0  0  0  0  0  0  0  0  0  0
    0.0000    0.0000    0.0000 C   0  0  0  0  0  0  0  0  0  0  0  0
    0.0000    0.0000    0.0000 C   0  0  0  0  0  0  0  0  0  0  0  0
    0.0000    0.0000    0.0000 N   0  0  0  0  0  0  0  0  0  0  0  0
    0.0000    0.0000    0.0000 C   0  0  0  0  0  0  0  0  0  0  0  0
    0.0000    0.0000    0.0000 C   0  0  0  0  0  0  0  0  0  0  0  0
    0.0000    0.0000    0.0000 C   0  0  0  0  0  0  0  0  0  0  0  0
    0.0000    0.0000    0.0000 C   0  0  0  0  0  0  0  0  0  0  0  0
    0.0000    0.0000    0.0000 C   0  0  0  0  0  0  0  0  0  0  0  0
    0.0000    0.0000    0.0000 C   0  0  0  0  0  0  0  0  0  0  0  0
    0.0000    0.0000    0.0000 Cl  0  0  0  0  0  0  0  0  0  0  0  0
    0.0000    0.0000    0.0000 C   0  0  0  0  0  0  0  0  0  0  0  0
    0.0000    0.0000    0.0000 C   0  0  0  0  0  0  0  0  0  0  0  0
  1  2  1  0
  2  3  1  0
  3  4  2  0
  4  5  1  0
  5  6  2  0
  6  7  1  0
  7  8  1  0
  8  9  1  0
  9 10  1  0
 10 11  1  0
 11 12  1  0
 12 13  1  0
  9 14  1  0
 14 15  1  0
 15 16  1  0
 16 17  1  0
 17 18  1  0
 18 19  1  0
 19 20  2  0
 17 21  1  0
 21 22  2  0
 21 23  1  0
 23 24  1  0
 24 25  1  0
 25 26  1  0
 26 27  1  0
 27 28  1  0
 28 29  1  0
 29 30  2  0
 30 31  1  0
 31 32  2  0
 32 33  1  0
 32 34  1  0
 34 35  2  0
 19  3  1  0
 20  6  1  0
 25  8  1  0
 13 11  1  0
 20 16  1  0
 25 16  1  0
 35 29  1  0
M  END
>  <pIC50>  (367) 
8.43

>  <ChEMBL_ID>  (367) 
CHEMBL387101

>  <document_journal>  (367) 
J. Med. Chem.

>  <bao_endpoint>  (367) 
BAO_0000190

>  <potential_duplicate>  (367) 
False

>  <uo_units>  (367) 
UO_0000065

>  <canonical_smiles>  (367) 
COc1ccc2C[C@H]3N(CC4CC4)CC[C@@]56[C@@H](Oc1c25)C(=O)CC[C@@]36NCCc7ccc(Cl)cc7

>  <parent_molecule_chembl_id>  (367) 
CHEMBL387101

>  <assay_type>  (367) 
F

>  <src_id>  (367) 
1

>  <ligand_efficiency>  (367) 
None

>  <standard_flag>  (367) 
True

>  <molecule_chembl_id>  (367) 
CHEMBL387101

>  <target_organism>  (367) 
Homo sapiens

>  <standard_units>  (367) 
nM

>  <record_id>  (367) 
606874

>  <document_chembl_id>  (367) 
CHEMBL1137387

>  <bao_format>  (367) 
BAO_0000219

>  <data_validity_description>  (367) 
None

>  <activity_id>  (367) 
1774795

>  <standard_type>  (367) 
IC50

>  <target_chembl_id>  (367) 
CHEMBL233

>  <data_validity_comment>  (367) 
None

>  <published_value>  (367) 
3.73

>  <document_year>  (367) 
2006

>  <target_pref_name>  (367) 
Mu opioid receptor

>  <assay_chembl_id>  (367) 
CHEMBL907187

>  <standard_relation>  (367) 
=

>  <assay_description>  (367) 
Activity at human recombinant mu opioid receptor expressed in CHO cells assessed as stimulation of [35S]GTP-gamma-S binding

>  <published_relation>  (367) 
=

>  <standard_value>  (367) 
3.73

>  <qudt_units>  (367) 
http://www.openphacts.org/units/Nanomolar

>  <target_tax_id>  (367) 
9606

>  <bao_label>  (367) 
cell-based format

>  <published_units>  (367) 
nM

>  <pchembl_value>  (367) 
8.43

>  <published_type>  (367) 
IC50

>  <activity_comment>  (367) 
None

$$$$

     RDKit          

 36 42  0  0  0  0  0  0  0  0999 V2000
    0.0000    0.0000    0.0000 C   0  0  0  0  0  0  0  0  0  0  0  0
    0.0000    0.0000    0.0000 O   0  0  0  0  0  0  0  0  0  0  0  0
    0.0000    0.0000    0.0000 C   0  0  0  0  0  0  0  0  0  0  0  0
    0.0000    0.0000    0.0000 C   0  0  0  0  0  0  0  0  0  0  0  0
    0.0000    0.0000    0.0000 C   0  0  0  0  0  0  0  0  0  0  0  0
    0.0000    0.0000    0.0000 C   0  0  0  0  0  0  0  0  0  0  0  0
    0.0000    0.0000    0.0000 C   0  0  0  0  0  0  0  0  0  0  0  0
    0.0000    0.0000    0.0000 C   0  0  0  0  0  0  0  0  0  0  0  0
    0.0000    0.0000    0.0000 N   0  0  0  0  0  0  0  0  0  0  0  0
    0.0000    0.0000    0.0000 C   0  0  0  0  0  0  0  0  0  0  0  0
    0.0000    0.0000    0.0000 C   0  0  0  0  0  0  0  0  0  0  0  0
    0.0000    0.0000    0.0000 C   0  0  0  0  0  0  0  0  0  0  0  0
    0.0000    0.0000    0.0000 C   0  0  0  0  0  0  0  0  0  0  0  0
    0.0000    0.0000    0.0000 C   0  0  0  0  0  0  0  0  0  0  0  0
    0.0000    0.0000    0.0000 C   0  0  0  0  0  0  0  0  0  0  0  0
    0.0000    0.0000    0.0000 C   0  0  0  0  0  0  0  0  0  0  0  0
    0.0000    0.0000    0.0000 C   0  0  0  0  0  0  0  0  0  0  0  0
    0.0000    0.0000    0.0000 O   0  0  0  0  0  0  0  0  0  0  0  0
    0.0000    0.0000    0.0000 C   0  0  0  0  0  0  0  0  0  0  0  0
    0.0000    0.0000    0.0000 C   0  0  0  0  0  0  0  0  0  0  0  0
    0.0000    0.0000    0.0000 C   0  0  0  0  0  0  0  0  0  0  0  0
    0.0000    0.0000    0.0000 O   0  0  0  0  0  0  0  0  0  0  0  0
    0.0000    0.0000    0.0000 C   0  0  0  0  0  0  0  0  0  0  0  0
    0.0000    0.0000    0.0000 C   0  0  0  0  0  0  0  0  0  0  0  0
    0.0000    0.0000    0.0000 C   0  0  0  0  0  0  0  0  0  0  0  0
    0.0000    0.0000    0.0000 N   0  0  0  0  0  0  0  0  0  0  0  0
    0.0000    0.0000    0.0000 C   0  0  0  0  0  0  0  0  0  0  0  0
    0.0000    0.0000    0.0000 O   0  0  0  0  0  0  0  0  0  0  0  0
    0.0000    0.0000    0.0000 C   0  0  0  0  0  0  0  0  0  0  0  0
    0.0000    0.0000    0.0000 C   0  0  0  0  0  0  0  0  0  0  0  0
    0.0000    0.0000    0.0000 C   0  0  0  0  0  0  0  0  0  0  0  0
    0.0000    0.0000    0.0000 C   0  0  0  0  0  0  0  0  0  0  0  0
    0.0000    0.0000    0.0000 C   0  0  0  0  0  0  0  0  0  0  0  0
    0.0000    0.0000    0.0000 Cl  0  0  0  0  0  0  0  0  0  0  0  0
    0.0000    0.0000    0.0000 C   0  0  0  0  0  0  0  0  0  0  0  0
    0.0000    0.0000    0.0000 C   0  0  0  0  0  0  0  0  0  0  0  0
  1  2  1  0
  2  3  1  0
  3  4  2  0
  4  5  1  0
  5  6  2  0
  6  7  1  0
  7  8  1  0
  8  9  1  0
  9 10  1  0
 10 11  1  0
 11 12  1  0
 12 13  1  0
  9 14  1  0
 14 15  1  0
 15 16  1  0
 16 17  1  0
 17 18  1  0
 18 19  1  0
 19 20  2  0
 17 21  1  0
 21 22  2  0
 21 23  1  0
 23 24  1  0
 24 25  1  0
 25 26  1  0
 26 27  1  0
 27 28  2  0
 27 29  1  0
 29 30  1  0
 30 31  2  0
 31 32  1  0
 32 33  2  0
 33 34  1  0
 33 35  1  0
 35 36  2  0
 19  3  1  0
 20  6  1  0
 25  8  1  0
 13 11  1  0
 20 16  1  0
 25 16  1  0
 36 30  1  0
M  END
>  <pIC50>  (368) 
8.05

>  <ChEMBL_ID>  (368) 
CHEMBL277530

>  <document_journal>  (368) 
J. Med. Chem.

>  <bao_endpoint>  (368) 
BAO_0000190

>  <potential_duplicate>  (368) 
False

>  <uo_units>  (368) 
UO_0000065

>  <canonical_smiles>  (368) 
COc1ccc2C[C@H]3N(CC4CC4)CC[C@@]56[C@@H](Oc1c25)C(=O)CC[C@@]36NC(=O)Cc7ccc(Cl)cc7

>  <parent_molecule_chembl_id>  (368) 
CHEMBL277530

>  <assay_type>  (368) 
F

>  <src_id>  (368) 
1

>  <ligand_efficiency>  (368) 
None

>  <standard_flag>  (368) 
True

>  <molecule_chembl_id>  (368) 
CHEMBL277530

>  <target_organism>  (368) 
Homo sapiens

>  <standard_units>  (368) 
nM

>  <record_id>  (368) 
606873

>  <document_chembl_id>  (368) 
CHEMBL1137387

>  <bao_format>  (368) 
BAO_0000219

>  <data_validity_description>  (368) 
None

>  <activity_id>  (368) 
1774796

>  <standard_type>  (368) 
IC50

>  <target_chembl_id>  (368) 
CHEMBL233

>  <data_validity_comment>  (368) 
None

>  <published_value>  (368) 
8.84

>  <document_year>  (368) 
2006

>  <target_pref_name>  (368) 
Mu opioid receptor

>  <assay_chembl_id>  (368) 
CHEMBL907187

>  <standard_relation>  (368) 
=

>  <assay_description>  (368) 
Activity at human recombinant mu opioid receptor expressed in CHO cells assessed as stimulation of [35S]GTP-gamma-S binding

>  <published_relation>  (368) 
=

>  <standard_value>  (368) 
8.84

>  <qudt_units>  (368) 
http://www.openphacts.org/units/Nanomolar

>  <target_tax_id>  (368) 
9606

>  <bao_label>  (368) 
cell-based format

>  <published_units>  (368) 
nM

>  <pchembl_value>  (368) 
8.05

>  <published_type>  (368) 
IC50

>  <activity_comment>  (368) 
None

$$$$

     RDKit          

 37 43  0  0  0  0  0  0  0  0999 V2000
    0.0000    0.0000    0.0000 C   0  0  0  0  0  0  0  0  0  0  0  0
    0.0000    0.0000    0.0000 O   0  0  0  0  0  0  0  0  0  0  0  0
    0.0000    0.0000    0.0000 C   0  0  0  0  0  0  0  0  0  0  0  0
    0.0000    0.0000    0.0000 C   0  0  0  0  0  0  0  0  0  0  0  0
    0.0000    0.0000    0.0000 C   0  0  0  0  0  0  0  0  0  0  0  0
    0.0000    0.0000    0.0000 C   0  0  0  0  0  0  0  0  0  0  0  0
    0.0000    0.0000    0.0000 C   0  0  0  0  0  0  0  0  0  0  0  0
    0.0000    0.0000    0.0000 C   0  0  0  0  0  0  0  0  0  0  0  0
    0.0000    0.0000    0.0000 N   0  0  0  0  0  0  0  0  0  0  0  0
    0.0000    0.0000    0.0000 C   0  0  0  0  0  0  0  0  0  0  0  0
    0.0000    0.0000    0.0000 C   0  0  0  0  0  0  0  0  0  0  0  0
    0.0000    0.0000    0.0000 C   0  0  0  0  0  0  0  0  0  0  0  0
    0.0000    0.0000    0.0000 C   0  0  0  0  0  0  0  0  0  0  0  0
    0.0000    0.0000    0.0000 C   0  0  0  0  0  0  0  0  0  0  0  0
    0.0000    0.0000    0.0000 C   0  0  0  0  0  0  0  0  0  0  0  0
    0.0000    0.0000    0.0000 C   0  0  0  0  0  0  0  0  0  0  0  0
    0.0000    0.0000    0.0000 C   0  0  0  0  0  0  0  0  0  0  0  0
    0.0000    0.0000    0.0000 O   0  0  0  0  0  0  0  0  0  0  0  0
    0.0000    0.0000    0.0000 C   0  0  0  0  0  0  0  0  0  0  0  0
    0.0000    0.0000    0.0000 C   0  0  0  0  0  0  0  0  0  0  0  0
    0.0000    0.0000    0.0000 C   0  0  0  0  0  0  0  0  0  0  0  0
    0.0000    0.0000    0.0000 O   0  0  0  0  0  0  0  0  0  0  0  0
    0.0000    0.0000    0.0000 C   0  0  0  0  0  0  0  0  0  0  0  0
    0.0000    0.0000    0.0000 C   0  0  0  0  0  0  0  0  0  0  0  0
    0.0000    0.0000    0.0000 C   0  0  0  0  0  0  0  0  0  0  0  0
    0.0000    0.0000    0.0000 N   0  0  0  0  0  0  0  0  0  0  0  0
    0.0000    0.0000    0.0000 C   0  0  0  0  0  0  0  0  0  0  0  0
    0.0000    0.0000    0.0000 C   0  0  0  0  0  0  0  0  0  0  0  0
    0.0000    0.0000    0.0000 C   0  0  0  0  0  0  0  0  0  0  0  0
    0.0000    0.0000    0.0000 C   0  0  0  0  0  0  0  0  0  0  0  0
    0.0000    0.0000    0.0000 C   0  0  0  0  0  0  0  0  0  0  0  0
    0.0000    0.0000    0.0000 C   0  0  0  0  0  0  0  0  0  0  0  0
    0.0000    0.0000    0.0000 C   0  0  0  0  0  0  0  0  0  0  0  0
    0.0000    0.0000    0.0000 C   0  0  0  0  0  0  0  0  0  0  0  0
    0.0000    0.0000    0.0000 Cl  0  0  0  0  0  0  0  0  0  0  0  0
    0.0000    0.0000    0.0000 C   0  0  0  0  0  0  0  0  0  0  0  0
    0.0000    0.0000    0.0000 C   0  0  0  0  0  0  0  0  0  0  0  0
  1  2  1  0
  2  3  1  0
  3  4  2  0
  4  5  1  0
  5  6  2  0
  6  7  1  0
  7  8  1  0
  8  9  1  0
  9 10  1  0
 10 11  1  0
 11 12  1  0
 12 13  1  0
  9 14  1  0
 14 15  1  0
 15 16  1  0
 16 17  1  0
 17 18  1  0
 18 19  1  0
 19 20  2  0
 17 21  1  0
 21 22  2  0
 21 23  1  0
 23 24  1  0
 24 25  1  0
 25 26  1  0
 26 27  1  0
 27 28  1  0
 28 29  1  0
 29 30  1  0
 30 31  1  0
 31 32  2  0
 32 33  1  0
 33 34  2  0
 34 35  1  0
 34 36  1  0
 36 37  2  0
 19  3  1  0
 20  6  1  0
 25  8  1  0
 13 11  1  0
 20 16  1  0
 25 16  1  0
 37 31  1  0
M  END
>  <pIC50>  (369) 
8.84

>  <ChEMBL_ID>  (369) 
CHEMBL215926

>  <document_journal>  (369) 
J. Med. Chem.

>  <bao_endpoint>  (369) 
BAO_0000190

>  <potential_duplicate>  (369) 
False

>  <uo_units>  (369) 
UO_0000065

>  <canonical_smiles>  (369) 
COc1ccc2C[C@H]3N(CC4CC4)CC[C@@]56[C@@H](Oc1c25)C(=O)CC[C@@]36NCCCCc7ccc(Cl)cc7

>  <parent_molecule_chembl_id>  (369) 
CHEMBL215926

>  <assay_type>  (369) 
F

>  <src_id>  (369) 
1

>  <ligand_efficiency>  (369) 
None

>  <standard_flag>  (369) 
True

>  <molecule_chembl_id>  (369) 
CHEMBL215926

>  <target_organism>  (369) 
Homo sapiens

>  <standard_units>  (369) 
nM

>  <record_id>  (369) 
606872

>  <document_chembl_id>  (369) 
CHEMBL1137387

>  <bao_format>  (369) 
BAO_0000219

>  <data_validity_description>  (369) 
None

>  <activity_id>  (369) 
1774797

>  <standard_type>  (369) 
IC50

>  <target_chembl_id>  (369) 
CHEMBL233

>  <data_validity_comment>  (369) 
None

>  <published_value>  (369) 
1.45

>  <document_year>  (369) 
2006

>  <target_pref_name>  (369) 
Mu opioid receptor

>  <assay_chembl_id>  (369) 
CHEMBL907187

>  <standard_relation>  (369) 
=

>  <assay_description>  (369) 
Activity at human recombinant mu opioid receptor expressed in CHO cells assessed as stimulation of [35S]GTP-gamma-S binding

>  <published_relation>  (369) 
=

>  <standard_value>  (369) 
1.45

>  <qudt_units>  (369) 
http://www.openphacts.org/units/Nanomolar

>  <target_tax_id>  (369) 
9606

>  <bao_label>  (369) 
cell-based format

>  <published_units>  (369) 
nM

>  <pchembl_value>  (369) 
8.84

>  <published_type>  (369) 
IC50

>  <activity_comment>  (369) 
None

$$$$

     RDKit          

 37 43  0  0  0  0  0  0  0  0999 V2000
    0.0000    0.0000    0.0000 C   0  0  0  0  0  0  0  0  0  0  0  0
    0.0000    0.0000    0.0000 O   0  0  0  0  0  0  0  0  0  0  0  0
    0.0000    0.0000    0.0000 C   0  0  0  0  0  0  0  0  0  0  0  0
    0.0000    0.0000    0.0000 C   0  0  0  0  0  0  0  0  0  0  0  0
    0.0000    0.0000    0.0000 C   0  0  0  0  0  0  0  0  0  0  0  0
    0.0000    0.0000    0.0000 C   0  0  0  0  0  0  0  0  0  0  0  0
    0.0000    0.0000    0.0000 C   0  0  0  0  0  0  0  0  0  0  0  0
    0.0000    0.0000    0.0000 C   0  0  0  0  0  0  0  0  0  0  0  0
    0.0000    0.0000    0.0000 N   0  0  0  0  0  0  0  0  0  0  0  0
    0.0000    0.0000    0.0000 C   0  0  0  0  0  0  0  0  0  0  0  0
    0.0000    0.0000    0.0000 C   0  0  0  0  0  0  0  0  0  0  0  0
    0.0000    0.0000    0.0000 C   0  0  0  0  0  0  0  0  0  0  0  0
    0.0000    0.0000    0.0000 C   0  0  0  0  0  0  0  0  0  0  0  0
    0.0000    0.0000    0.0000 C   0  0  0  0  0  0  0  0  0  0  0  0
    0.0000    0.0000    0.0000 C   0  0  0  0  0  0  0  0  0  0  0  0
    0.0000    0.0000    0.0000 C   0  0  0  0  0  0  0  0  0  0  0  0
    0.0000    0.0000    0.0000 C   0  0  0  0  0  0  0  0  0  0  0  0
    0.0000    0.0000    0.0000 O   0  0  0  0  0  0  0  0  0  0  0  0
    0.0000    0.0000    0.0000 C   0  0  0  0  0  0  0  0  0  0  0  0
    0.0000    0.0000    0.0000 C   0  0  0  0  0  0  0  0  0  0  0  0
    0.0000    0.0000    0.0000 C   0  0  0  0  0  0  0  0  0  0  0  0
    0.0000    0.0000    0.0000 O   0  0  0  0  0  0  0  0  0  0  0  0
    0.0000    0.0000    0.0000 C   0  0  0  0  0  0  0  0  0  0  0  0
    0.0000    0.0000    0.0000 C   0  0  0  0  0  0  0  0  0  0  0  0
    0.0000    0.0000    0.0000 C   0  0  0  0  0  0  0  0  0  0  0  0
    0.0000    0.0000    0.0000 N   0  0  0  0  0  0  0  0  0  0  0  0
    0.0000    0.0000    0.0000 C   0  0  0  0  0  0  0  0  0  0  0  0
    0.0000    0.0000    0.0000 C   0  0  0  0  0  0  0  0  0  0  0  0
    0.0000    0.0000    0.0000 C   0  0  0  0  0  0  0  0  0  0  0  0
    0.0000    0.0000    0.0000 C   0  0  0  0  0  0  0  0  0  0  0  0
    0.0000    0.0000    0.0000 C   0  0  0  0  0  0  0  0  0  0  0  0
    0.0000    0.0000    0.0000 C   0  0  0  0  0  0  0  0  0  0  0  0
    0.0000    0.0000    0.0000 C   0  0  0  0  0  0  0  0  0  0  0  0
    0.0000    0.0000    0.0000 C   0  0  0  0  0  0  0  0  0  0  0  0
    0.0000    0.0000    0.0000 Cl  0  0  0  0  0  0  0  0  0  0  0  0
    0.0000    0.0000    0.0000 C   0  0  0  0  0  0  0  0  0  0  0  0
    0.0000    0.0000    0.0000 C   0  0  0  0  0  0  0  0  0  0  0  0
  1  2  1  0
  2  3  1  0
  3  4  2  0
  4  5  1  0
  5  6  2  0
  6  7  1  0
  7  8  1  0
  8  9  1  0
  9 10  1  0
 10 11  1  0
 11 12  1  0
 12 13  1  0
  9 14  1  0
 14 15  1  0
 15 16  1  0
 16 17  1  0
 17 18  1  0
 18 19  1  0
 19 20  2  0
 17 21  1  0
 21 22  2  0
 21 23  1  0
 23 24  1  0
 24 25  1  0
 25 26  1  0
 26 27  1  0
 27 28  1  0
 28 29  1  0
 29 30  2  0
 30 31  1  0
 31 32  2  0
 32 33  1  0
 33 34  2  0
 34 35  1  0
 34 36  1  0
 36 37  2  0
 19  3  1  0
 20  6  1  0
 25  8  1  0
 13 11  1  0
 20 16  1  0
 25 16  1  0
 37 31  1  0
M  END
>  <pIC50>  (370) 
8.79

>  <ChEMBL_ID>  (370) 
CHEMBL411089

>  <document_journal>  (370) 
J. Med. Chem.

>  <bao_endpoint>  (370) 
BAO_0000190

>  <potential_duplicate>  (370) 
False

>  <uo_units>  (370) 
UO_0000065

>  <canonical_smiles>  (370) 
COc1ccc2C[C@H]3N(CC4CC4)CC[C@@]56[C@@H](Oc1c25)C(=O)CC[C@@]36NCC\C=C\c7ccc(Cl)cc7

>  <parent_molecule_chembl_id>  (370) 
CHEMBL411089

>  <assay_type>  (370) 
F

>  <src_id>  (370) 
1

>  <ligand_efficiency>  (370) 
None

>  <standard_flag>  (370) 
True

>  <molecule_chembl_id>  (370) 
CHEMBL411089

>  <target_organism>  (370) 
Homo sapiens

>  <standard_units>  (370) 
nM

>  <record_id>  (370) 
606871

>  <document_chembl_id>  (370) 
CHEMBL1137387

>  <bao_format>  (370) 
BAO_0000219

>  <data_validity_description>  (370) 
None

>  <activity_id>  (370) 
1774798

>  <standard_type>  (370) 
IC50

>  <target_chembl_id>  (370) 
CHEMBL233

>  <data_validity_comment>  (370) 
None

>  <published_value>  (370) 
1.64

>  <document_year>  (370) 
2006

>  <target_pref_name>  (370) 
Mu opioid receptor

>  <assay_chembl_id>  (370) 
CHEMBL907187

>  <standard_relation>  (370) 
=

>  <assay_description>  (370) 
Activity at human recombinant mu opioid receptor expressed in CHO cells assessed as stimulation of [35S]GTP-gamma-S binding

>  <published_relation>  (370) 
=

>  <standard_value>  (370) 
1.64

>  <qudt_units>  (370) 
http://www.openphacts.org/units/Nanomolar

>  <target_tax_id>  (370) 
9606

>  <bao_label>  (370) 
cell-based format

>  <published_units>  (370) 
nM

>  <pchembl_value>  (370) 
8.79

>  <published_type>  (370) 
IC50

>  <activity_comment>  (370) 
None

$$$$

     RDKit          

 37 43  0  0  0  0  0  0  0  0999 V2000
    0.0000    0.0000    0.0000 C   0  0  0  0  0  0  0  0  0  0  0  0
    0.0000    0.0000    0.0000 O   0  0  0  0  0  0  0  0  0  0  0  0
    0.0000    0.0000    0.0000 C   0  0  0  0  0  0  0  0  0  0  0  0
    0.0000    0.0000    0.0000 C   0  0  0  0  0  0  0  0  0  0  0  0
    0.0000    0.0000    0.0000 C   0  0  0  0  0  0  0  0  0  0  0  0
    0.0000    0.0000    0.0000 C   0  0  0  0  0  0  0  0  0  0  0  0
    0.0000    0.0000    0.0000 C   0  0  0  0  0  0  0  0  0  0  0  0
    0.0000    0.0000    0.0000 C   0  0  0  0  0  0  0  0  0  0  0  0
    0.0000    0.0000    0.0000 N   0  0  0  0  0  0  0  0  0  0  0  0
    0.0000    0.0000    0.0000 C   0  0  0  0  0  0  0  0  0  0  0  0
    0.0000    0.0000    0.0000 C   0  0  0  0  0  0  0  0  0  0  0  0
    0.0000    0.0000    0.0000 C   0  0  0  0  0  0  0  0  0  0  0  0
    0.0000    0.0000    0.0000 C   0  0  0  0  0  0  0  0  0  0  0  0
    0.0000    0.0000    0.0000 C   0  0  0  0  0  0  0  0  0  0  0  0
    0.0000    0.0000    0.0000 C   0  0  0  0  0  0  0  0  0  0  0  0
    0.0000    0.0000    0.0000 C   0  0  0  0  0  0  0  0  0  0  0  0
    0.0000    0.0000    0.0000 C   0  0  0  0  0  0  0  0  0  0  0  0
    0.0000    0.0000    0.0000 O   0  0  0  0  0  0  0  0  0  0  0  0
    0.0000    0.0000    0.0000 C   0  0  0  0  0  0  0  0  0  0  0  0
    0.0000    0.0000    0.0000 C   0  0  0  0  0  0  0  0  0  0  0  0
    0.0000    0.0000    0.0000 C   0  0  0  0  0  0  0  0  0  0  0  0
    0.0000    0.0000    0.0000 O   0  0  0  0  0  0  0  0  0  0  0  0
    0.0000    0.0000    0.0000 C   0  0  0  0  0  0  0  0  0  0  0  0
    0.0000    0.0000    0.0000 C   0  0  0  0  0  0  0  0  0  0  0  0
    0.0000    0.0000    0.0000 C   0  0  0  0  0  0  0  0  0  0  0  0
    0.0000    0.0000    0.0000 N   0  0  0  0  0  0  0  0  0  0  0  0
    0.0000    0.0000    0.0000 C   0  0  0  0  0  0  0  0  0  0  0  0
    0.0000    0.0000    0.0000 C   0  0  0  0  0  0  0  0  0  0  0  0
    0.0000    0.0000    0.0000 C   0  0  0  0  0  0  0  0  0  0  0  0
    0.0000    0.0000    0.0000 C   0  0  0  0  0  0  0  0  0  0  0  0
    0.0000    0.0000    0.0000 C   0  0  0  0  0  0  0  0  0  0  0  0
    0.0000    0.0000    0.0000 C   0  0  0  0  0  0  0  0  0  0  0  0
    0.0000    0.0000    0.0000 C   0  0  0  0  0  0  0  0  0  0  0  0
    0.0000    0.0000    0.0000 C   0  0  0  0  0  0  0  0  0  0  0  0
    0.0000    0.0000    0.0000 Cl  0  0  0  0  0  0  0  0  0  0  0  0
    0.0000    0.0000    0.0000 C   0  0  0  0  0  0  0  0  0  0  0  0
    0.0000    0.0000    0.0000 C   0  0  0  0  0  0  0  0  0  0  0  0
  1  2  1  0
  2  3  1  0
  3  4  2  0
  4  5  1  0
  5  6  2  0
  6  7  1  0
  7  8  1  0
  8  9  1  0
  9 10  1  0
 10 11  1  0
 11 12  1  0
 12 13  1  0
  9 14  1  0
 14 15  1  0
 15 16  1  0
 16 17  1  0
 17 18  1  0
 18 19  1  0
 19 20  2  0
 17 21  1  0
 21 22  2  0
 21 23  1  0
 23 24  1  0
 24 25  1  0
 25 26  1  0
 26 27  1  0
 27 28  1  0
 28 29  2  0
 29 30  1  0
 30 31  1  0
 31 32  2  0
 32 33  1  0
 33 34  2  0
 34 35  1  0
 34 36  1  0
 36 37  2  0
 19  3  1  0
 20  6  1  0
 25  8  1  0
 13 11  1  0
 20 16  1  0
 25 16  1  0
 37 31  1  0
M  END
>  <pIC50>  (371) 
8.3

>  <ChEMBL_ID>  (371) 
CHEMBL384118

>  <document_journal>  (371) 
J. Med. Chem.

>  <bao_endpoint>  (371) 
BAO_0000190

>  <potential_duplicate>  (371) 
False

>  <uo_units>  (371) 
UO_0000065

>  <canonical_smiles>  (371) 
COc1ccc2C[C@H]3N(CC4CC4)CC[C@@]56[C@@H](Oc1c25)C(=O)CC[C@@]36NC\C=C\Cc7ccc(Cl)cc7

>  <parent_molecule_chembl_id>  (371) 
CHEMBL384118

>  <assay_type>  (371) 
F

>  <src_id>  (371) 
1

>  <ligand_efficiency>  (371) 
None

>  <standard_flag>  (371) 
True

>  <molecule_chembl_id>  (371) 
CHEMBL384118

>  <target_organism>  (371) 
Homo sapiens

>  <standard_units>  (371) 
nM

>  <record_id>  (371) 
606870

>  <document_chembl_id>  (371) 
CHEMBL1137387

>  <bao_format>  (371) 
BAO_0000219

>  <data_validity_description>  (371) 
None

>  <activity_id>  (371) 
1774799

>  <standard_type>  (371) 
IC50

>  <target_chembl_id>  (371) 
CHEMBL233

>  <data_validity_comment>  (371) 
None

>  <published_value>  (371) 
4.98

>  <document_year>  (371) 
2006

>  <target_pref_name>  (371) 
Mu opioid receptor

>  <assay_chembl_id>  (371) 
CHEMBL907187

>  <standard_relation>  (371) 
=

>  <assay_description>  (371) 
Activity at human recombinant mu opioid receptor expressed in CHO cells assessed as stimulation of [35S]GTP-gamma-S binding

>  <published_relation>  (371) 
=

>  <standard_value>  (371) 
4.98

>  <qudt_units>  (371) 
http://www.openphacts.org/units/Nanomolar

>  <target_tax_id>  (371) 
9606

>  <bao_label>  (371) 
cell-based format

>  <published_units>  (371) 
nM

>  <pchembl_value>  (371) 
8.3

>  <published_type>  (371) 
IC50

>  <activity_comment>  (371) 
None

$$$$

     RDKit          

 38 44  0  0  0  0  0  0  0  0999 V2000
    0.0000    0.0000    0.0000 C   0  0  0  0  0  0  0  0  0  0  0  0
    0.0000    0.0000    0.0000 O   0  0  0  0  0  0  0  0  0  0  0  0
    0.0000    0.0000    0.0000 C   0  0  0  0  0  0  0  0  0  0  0  0
    0.0000    0.0000    0.0000 C   0  0  0  0  0  0  0  0  0  0  0  0
    0.0000    0.0000    0.0000 C   0  0  0  0  0  0  0  0  0  0  0  0
    0.0000    0.0000    0.0000 C   0  0  0  0  0  0  0  0  0  0  0  0
    0.0000    0.0000    0.0000 C   0  0  0  0  0  0  0  0  0  0  0  0
    0.0000    0.0000    0.0000 C   0  0  0  0  0  0  0  0  0  0  0  0
    0.0000    0.0000    0.0000 N   0  0  0  0  0  0  0  0  0  0  0  0
    0.0000    0.0000    0.0000 C   0  0  0  0  0  0  0  0  0  0  0  0
    0.0000    0.0000    0.0000 C   0  0  0  0  0  0  0  0  0  0  0  0
    0.0000    0.0000    0.0000 C   0  0  0  0  0  0  0  0  0  0  0  0
    0.0000    0.0000    0.0000 C   0  0  0  0  0  0  0  0  0  0  0  0
    0.0000    0.0000    0.0000 C   0  0  0  0  0  0  0  0  0  0  0  0
    0.0000    0.0000    0.0000 C   0  0  0  0  0  0  0  0  0  0  0  0
    0.0000    0.0000    0.0000 C   0  0  0  0  0  0  0  0  0  0  0  0
    0.0000    0.0000    0.0000 C   0  0  0  0  0  0  0  0  0  0  0  0
    0.0000    0.0000    0.0000 O   0  0  0  0  0  0  0  0  0  0  0  0
    0.0000    0.0000    0.0000 C   0  0  0  0  0  0  0  0  0  0  0  0
    0.0000    0.0000    0.0000 C   0  0  0  0  0  0  0  0  0  0  0  0
    0.0000    0.0000    0.0000 C   0  0  0  0  0  0  0  0  0  0  0  0
    0.0000    0.0000    0.0000 O   0  0  0  0  0  0  0  0  0  0  0  0
    0.0000    0.0000    0.0000 C   0  0  0  0  0  0  0  0  0  0  0  0
    0.0000    0.0000    0.0000 C   0  0  0  0  0  0  0  0  0  0  0  0
    0.0000    0.0000    0.0000 C   0  0  0  0  0  0  0  0  0  0  0  0
    0.0000    0.0000    0.0000 N   0  0  0  0  0  0  0  0  0  0  0  0
    0.0000    0.0000    0.0000 C   0  0  0  0  0  0  0  0  0  0  0  0
    0.0000    0.0000    0.0000 O   0  0  0  0  0  0  0  0  0  0  0  0
    0.0000    0.0000    0.0000 C   0  0  0  0  0  0  0  0  0  0  0  0
    0.0000    0.0000    0.0000 C   0  0  0  0  0  0  0  0  0  0  0  0
    0.0000    0.0000    0.0000 C   0  0  0  0  0  0  0  0  0  0  0  0
    0.0000    0.0000    0.0000 C   0  0  0  0  0  0  0  0  0  0  0  0
    0.0000    0.0000    0.0000 C   0  0  0  0  0  0  0  0  0  0  0  0
    0.0000    0.0000    0.0000 C   0  0  0  0  0  0  0  0  0  0  0  0
    0.0000    0.0000    0.0000 C   0  0  0  0  0  0  0  0  0  0  0  0
    0.0000    0.0000    0.0000 Cl  0  0  0  0  0  0  0  0  0  0  0  0
    0.0000    0.0000    0.0000 C   0  0  0  0  0  0  0  0  0  0  0  0
    0.0000    0.0000    0.0000 C   0  0  0  0  0  0  0  0  0  0  0  0
  1  2  1  0
  2  3  1  0
  3  4  2  0
  4  5  1  0
  5  6  2  0
  6  7  1  0
  7  8  1  0
  8  9  1  0
  9 10  1  0
 10 11  1  0
 11 12  1  0
 12 13  1  0
  9 14  1  0
 14 15  1  0
 15 16  1  0
 16 17  1  0
 17 18  1  0
 18 19  1  0
 19 20  2  0
 17 21  1  0
 21 22  2  0
 21 23  1  0
 23 24  1  0
 24 25  1  0
 25 26  1  0
 26 27  1  0
 27 28  2  0
 27 29  1  0
 29 30  1  0
 30 31  1  0
 31 32  1  0
 32 33  2  0
 33 34  1  0
 34 35  2  0
 35 36  1  0
 35 37  1  0
 37 38  2  0
 19  3  1  0
 20  6  1  0
 25  8  1  0
 13 11  1  0
 20 16  1  0
 25 16  1  0
 38 32  1  0
M  END
>  <pIC50>  (372) 
8.31

>  <ChEMBL_ID>  (372) 
CHEMBL263482

>  <document_journal>  (372) 
J. Med. Chem.

>  <bao_endpoint>  (372) 
BAO_0000190

>  <potential_duplicate>  (372) 
False

>  <uo_units>  (372) 
UO_0000065

>  <canonical_smiles>  (372) 
COc1ccc2C[C@H]3N(CC4CC4)CC[C@@]56[C@@H](Oc1c25)C(=O)CC[C@@]36NC(=O)CCCc7ccc(Cl)cc7

>  <parent_molecule_chembl_id>  (372) 
CHEMBL263482

>  <assay_type>  (372) 
F

>  <src_id>  (372) 
1

>  <ligand_efficiency>  (372) 
None

>  <standard_flag>  (372) 
True

>  <molecule_chembl_id>  (372) 
CHEMBL263482

>  <target_organism>  (372) 
Homo sapiens

>  <standard_units>  (372) 
nM

>  <record_id>  (372) 
606869

>  <document_chembl_id>  (372) 
CHEMBL1137387

>  <bao_format>  (372) 
BAO_0000219

>  <data_validity_description>  (372) 
None

>  <activity_id>  (372) 
1774800

>  <standard_type>  (372) 
IC50

>  <target_chembl_id>  (372) 
CHEMBL233

>  <data_validity_comment>  (372) 
None

>  <published_value>  (372) 
4.91

>  <document_year>  (372) 
2006

>  <target_pref_name>  (372) 
Mu opioid receptor

>  <assay_chembl_id>  (372) 
CHEMBL907187

>  <standard_relation>  (372) 
=

>  <assay_description>  (372) 
Activity at human recombinant mu opioid receptor expressed in CHO cells assessed as stimulation of [35S]GTP-gamma-S binding

>  <published_relation>  (372) 
=

>  <standard_value>  (372) 
4.91

>  <qudt_units>  (372) 
http://www.openphacts.org/units/Nanomolar

>  <target_tax_id>  (372) 
9606

>  <bao_label>  (372) 
cell-based format

>  <published_units>  (372) 
nM

>  <pchembl_value>  (372) 
8.31

>  <published_type>  (372) 
IC50

>  <activity_comment>  (372) 
None

$$$$

     RDKit          

 38 44  0  0  0  0  0  0  0  0999 V2000
    0.0000    0.0000    0.0000 C   0  0  0  0  0  0  0  0  0  0  0  0
    0.0000    0.0000    0.0000 O   0  0  0  0  0  0  0  0  0  0  0  0
    0.0000    0.0000    0.0000 C   0  0  0  0  0  0  0  0  0  0  0  0
    0.0000    0.0000    0.0000 C   0  0  0  0  0  0  0  0  0  0  0  0
    0.0000    0.0000    0.0000 C   0  0  0  0  0  0  0  0  0  0  0  0
    0.0000    0.0000    0.0000 C   0  0  0  0  0  0  0  0  0  0  0  0
    0.0000    0.0000    0.0000 C   0  0  0  0  0  0  0  0  0  0  0  0
    0.0000    0.0000    0.0000 C   0  0  0  0  0  0  0  0  0  0  0  0
    0.0000    0.0000    0.0000 N   0  0  0  0  0  0  0  0  0  0  0  0
    0.0000    0.0000    0.0000 C   0  0  0  0  0  0  0  0  0  0  0  0
    0.0000    0.0000    0.0000 C   0  0  0  0  0  0  0  0  0  0  0  0
    0.0000    0.0000    0.0000 C   0  0  0  0  0  0  0  0  0  0  0  0
    0.0000    0.0000    0.0000 C   0  0  0  0  0  0  0  0  0  0  0  0
    0.0000    0.0000    0.0000 C   0  0  0  0  0  0  0  0  0  0  0  0
    0.0000    0.0000    0.0000 C   0  0  0  0  0  0  0  0  0  0  0  0
    0.0000    0.0000    0.0000 C   0  0  0  0  0  0  0  0  0  0  0  0
    0.0000    0.0000    0.0000 C   0  0  0  0  0  0  0  0  0  0  0  0
    0.0000    0.0000    0.0000 O   0  0  0  0  0  0  0  0  0  0  0  0
    0.0000    0.0000    0.0000 C   0  0  0  0  0  0  0  0  0  0  0  0
    0.0000    0.0000    0.0000 C   0  0  0  0  0  0  0  0  0  0  0  0
    0.0000    0.0000    0.0000 C   0  0  0  0  0  0  0  0  0  0  0  0
    0.0000    0.0000    0.0000 O   0  0  0  0  0  0  0  0  0  0  0  0
    0.0000    0.0000    0.0000 C   0  0  0  0  0  0  0  0  0  0  0  0
    0.0000    0.0000    0.0000 C   0  0  0  0  0  0  0  0  0  0  0  0
    0.0000    0.0000    0.0000 C   0  0  0  0  0  0  0  0  0  0  0  0
    0.0000    0.0000    0.0000 N   0  0  0  0  0  0  0  0  0  0  0  0
    0.0000    0.0000    0.0000 C   0  0  0  0  0  0  0  0  0  0  0  0
    0.0000    0.0000    0.0000 O   0  0  0  0  0  0  0  0  0  0  0  0
    0.0000    0.0000    0.0000 C   0  0  0  0  0  0  0  0  0  0  0  0
    0.0000    0.0000    0.0000 C   0  0  0  0  0  0  0  0  0  0  0  0
    0.0000    0.0000    0.0000 C   0  0  0  0  0  0  0  0  0  0  0  0
    0.0000    0.0000    0.0000 C   0  0  0  0  0  0  0  0  0  0  0  0
    0.0000    0.0000    0.0000 C   0  0  0  0  0  0  0  0  0  0  0  0
    0.0000    0.0000    0.0000 C   0  0  0  0  0  0  0  0  0  0  0  0
    0.0000    0.0000    0.0000 C   0  0  0  0  0  0  0  0  0  0  0  0
    0.0000    0.0000    0.0000 Cl  0  0  0  0  0  0  0  0  0  0  0  0
    0.0000    0.0000    0.0000 C   0  0  0  0  0  0  0  0  0  0  0  0
    0.0000    0.0000    0.0000 C   0  0  0  0  0  0  0  0  0  0  0  0
  1  2  1  0
  2  3  1  0
  3  4  2  0
  4  5  1  0
  5  6  2  0
  6  7  1  0
  7  8  1  0
  8  9  1  0
  9 10  1  0
 10 11  1  0
 11 12  1  0
 12 13  1  0
  9 14  1  0
 14 15  1  0
 15 16  1  0
 16 17  1  0
 17 18  1  0
 18 19  1  0
 19 20  2  0
 17 21  1  0
 21 22  2  0
 21 23  1  0
 23 24  1  0
 24 25  1  0
 25 26  1  0
 26 27  1  0
 27 28  2  0
 27 29  1  0
 29 30  1  0
 30 31  2  0
 31 32  1  0
 32 33  2  0
 33 34  1  0
 34 35  2  0
 35 36  1  0
 35 37  1  0
 37 38  2  0
 19  3  1  0
 20  6  1  0
 25  8  1  0
 13 11  1  0
 20 16  1  0
 25 16  1  0
 38 32  1  0
M  END
>  <pIC50>  (373) 
8.9

>  <ChEMBL_ID>  (373) 
CHEMBL216365

>  <document_journal>  (373) 
J. Med. Chem.

>  <bao_endpoint>  (373) 
BAO_0000190

>  <potential_duplicate>  (373) 
False

>  <uo_units>  (373) 
UO_0000065

>  <canonical_smiles>  (373) 
COc1ccc2C[C@H]3N(CC4CC4)CC[C@@]56[C@@H](Oc1c25)C(=O)CC[C@@]36NC(=O)C\C=C\c7ccc(Cl)cc7

>  <parent_molecule_chembl_id>  (373) 
CHEMBL216365

>  <assay_type>  (373) 
F

>  <src_id>  (373) 
1

>  <ligand_efficiency>  (373) 
None

>  <standard_flag>  (373) 
True

>  <molecule_chembl_id>  (373) 
CHEMBL216365

>  <target_organism>  (373) 
Homo sapiens

>  <standard_units>  (373) 
nM

>  <record_id>  (373) 
606868

>  <document_chembl_id>  (373) 
CHEMBL1137387

>  <bao_format>  (373) 
BAO_0000219

>  <data_validity_description>  (373) 
None

>  <activity_id>  (373) 
1774801

>  <standard_type>  (373) 
IC50

>  <target_chembl_id>  (373) 
CHEMBL233

>  <data_validity_comment>  (373) 
None

>  <published_value>  (373) 
1.27

>  <document_year>  (373) 
2006

>  <target_pref_name>  (373) 
Mu opioid receptor

>  <assay_chembl_id>  (373) 
CHEMBL907187

>  <standard_relation>  (373) 
=

>  <assay_description>  (373) 
Activity at human recombinant mu opioid receptor expressed in CHO cells assessed as stimulation of [35S]GTP-gamma-S binding

>  <published_relation>  (373) 
=

>  <standard_value>  (373) 
1.27

>  <qudt_units>  (373) 
http://www.openphacts.org/units/Nanomolar

>  <target_tax_id>  (373) 
9606

>  <bao_label>  (373) 
cell-based format

>  <published_units>  (373) 
nM

>  <pchembl_value>  (373) 
8.9

>  <published_type>  (373) 
IC50

>  <activity_comment>  (373) 
None

$$$$

     RDKit          

 38 44  0  0  0  0  0  0  0  0999 V2000
    0.0000    0.0000    0.0000 C   0  0  0  0  0  0  0  0  0  0  0  0
    0.0000    0.0000    0.0000 O   0  0  0  0  0  0  0  0  0  0  0  0
    0.0000    0.0000    0.0000 C   0  0  0  0  0  0  0  0  0  0  0  0
    0.0000    0.0000    0.0000 C   0  0  0  0  0  0  0  0  0  0  0  0
    0.0000    0.0000    0.0000 C   0  0  0  0  0  0  0  0  0  0  0  0
    0.0000    0.0000    0.0000 C   0  0  0  0  0  0  0  0  0  0  0  0
    0.0000    0.0000    0.0000 C   0  0  0  0  0  0  0  0  0  0  0  0
    0.0000    0.0000    0.0000 C   0  0  0  0  0  0  0  0  0  0  0  0
    0.0000    0.0000    0.0000 N   0  0  0  0  0  0  0  0  0  0  0  0
    0.0000    0.0000    0.0000 C   0  0  0  0  0  0  0  0  0  0  0  0
    0.0000    0.0000    0.0000 C   0  0  0  0  0  0  0  0  0  0  0  0
    0.0000    0.0000    0.0000 C   0  0  0  0  0  0  0  0  0  0  0  0
    0.0000    0.0000    0.0000 C   0  0  0  0  0  0  0  0  0  0  0  0
    0.0000    0.0000    0.0000 C   0  0  0  0  0  0  0  0  0  0  0  0
    0.0000    0.0000    0.0000 C   0  0  0  0  0  0  0  0  0  0  0  0
    0.0000    0.0000    0.0000 C   0  0  0  0  0  0  0  0  0  0  0  0
    0.0000    0.0000    0.0000 C   0  0  0  0  0  0  0  0  0  0  0  0
    0.0000    0.0000    0.0000 O   0  0  0  0  0  0  0  0  0  0  0  0
    0.0000    0.0000    0.0000 C   0  0  0  0  0  0  0  0  0  0  0  0
    0.0000    0.0000    0.0000 C   0  0  0  0  0  0  0  0  0  0  0  0
    0.0000    0.0000    0.0000 C   0  0  0  0  0  0  0  0  0  0  0  0
    0.0000    0.0000    0.0000 O   0  0  0  0  0  0  0  0  0  0  0  0
    0.0000    0.0000    0.0000 C   0  0  0  0  0  0  0  0  0  0  0  0
    0.0000    0.0000    0.0000 C   0  0  0  0  0  0  0  0  0  0  0  0
    0.0000    0.0000    0.0000 C   0  0  0  0  0  0  0  0  0  0  0  0
    0.0000    0.0000    0.0000 N   0  0  0  0  0  0  0  0  0  0  0  0
    0.0000    0.0000    0.0000 C   0  0  0  0  0  0  0  0  0  0  0  0
    0.0000    0.0000    0.0000 O   0  0  0  0  0  0  0  0  0  0  0  0
    0.0000    0.0000    0.0000 C   0  0  0  0  0  0  0  0  0  0  0  0
    0.0000    0.0000    0.0000 C   0  0  0  0  0  0  0  0  0  0  0  0
    0.0000    0.0000    0.0000 C   0  0  0  0  0  0  0  0  0  0  0  0
    0.0000    0.0000    0.0000 C   0  0  0  0  0  0  0  0  0  0  0  0
    0.0000    0.0000    0.0000 C   0  0  0  0  0  0  0  0  0  0  0  0
    0.0000    0.0000    0.0000 C   0  0  0  0  0  0  0  0  0  0  0  0
    0.0000    0.0000    0.0000 C   0  0  0  0  0  0  0  0  0  0  0  0
    0.0000    0.0000    0.0000 Cl  0  0  0  0  0  0  0  0  0  0  0  0
    0.0000    0.0000    0.0000 C   0  0  0  0  0  0  0  0  0  0  0  0
    0.0000    0.0000    0.0000 C   0  0  0  0  0  0  0  0  0  0  0  0
  1  2  1  0
  2  3  1  0
  3  4  2  0
  4  5  1  0
  5  6  2  0
  6  7  1  0
  7  8  1  0
  8  9  1  0
  9 10  1  0
 10 11  1  0
 11 12  1  0
 12 13  1  0
  9 14  1  0
 14 15  1  0
 15 16  1  0
 16 17  1  0
 17 18  1  0
 18 19  1  0
 19 20  2  0
 17 21  1  0
 21 22  2  0
 21 23  1  0
 23 24  1  0
 24 25  1  0
 25 26  1  0
 26 27  1  0
 27 28  2  0
 27 29  1  0
 29 30  2  0
 30 31  1  0
 31 32  1  0
 32 33  2  0
 33 34  1  0
 34 35  2  0
 35 36  1  0
 35 37  1  0
 37 38  2  0
 19  3  1  0
 20  6  1  0
 25  8  1  0
 13 11  1  0
 20 16  1  0
 25 16  1  0
 38 32  1  0
M  END
>  <pIC50>  (374) 
7.92

>  <ChEMBL_ID>  (374) 
CHEMBL217790

>  <document_journal>  (374) 
J. Med. Chem.

>  <bao_endpoint>  (374) 
BAO_0000190

>  <potential_duplicate>  (374) 
False

>  <uo_units>  (374) 
UO_0000065

>  <canonical_smiles>  (374) 
COc1ccc2C[C@H]3N(CC4CC4)CC[C@@]56[C@@H](Oc1c25)C(=O)CC[C@@]36NC(=O)\C=C\Cc7ccc(Cl)cc7

>  <parent_molecule_chembl_id>  (374) 
CHEMBL217790

>  <assay_type>  (374) 
F

>  <src_id>  (374) 
1

>  <ligand_efficiency>  (374) 
None

>  <standard_flag>  (374) 
True

>  <molecule_chembl_id>  (374) 
CHEMBL217790

>  <target_organism>  (374) 
Homo sapiens

>  <standard_units>  (374) 
nM

>  <record_id>  (374) 
606867

>  <document_chembl_id>  (374) 
CHEMBL1137387

>  <bao_format>  (374) 
BAO_0000219

>  <data_validity_description>  (374) 
None

>  <activity_id>  (374) 
1774802

>  <standard_type>  (374) 
IC50

>  <target_chembl_id>  (374) 
CHEMBL233

>  <data_validity_comment>  (374) 
None

>  <published_value>  (374) 
12.1

>  <document_year>  (374) 
2006

>  <target_pref_name>  (374) 
Mu opioid receptor

>  <assay_chembl_id>  (374) 
CHEMBL907187

>  <standard_relation>  (374) 
=

>  <assay_description>  (374) 
Activity at human recombinant mu opioid receptor expressed in CHO cells assessed as stimulation of [35S]GTP-gamma-S binding

>  <published_relation>  (374) 
=

>  <standard_value>  (374) 
12.1

>  <qudt_units>  (374) 
http://www.openphacts.org/units/Nanomolar

>  <target_tax_id>  (374) 
9606

>  <bao_label>  (374) 
cell-based format

>  <published_units>  (374) 
nM

>  <pchembl_value>  (374) 
7.92

>  <published_type>  (374) 
IC50

>  <activity_comment>  (374) 
None

$$$$

     RDKit          

 36 42  0  0  0  0  0  0  0  0999 V2000
    0.0000    0.0000    0.0000 C   0  0  0  0  0  0  0  0  0  0  0  0
    0.0000    0.0000    0.0000 O   0  0  0  0  0  0  0  0  0  0  0  0
    0.0000    0.0000    0.0000 C   0  0  0  0  0  0  0  0  0  0  0  0
    0.0000    0.0000    0.0000 C   0  0  0  0  0  0  0  0  0  0  0  0
    0.0000    0.0000    0.0000 C   0  0  0  0  0  0  0  0  0  0  0  0
    0.0000    0.0000    0.0000 C   0  0  0  0  0  0  0  0  0  0  0  0
    0.0000    0.0000    0.0000 C   0  0  0  0  0  0  0  0  0  0  0  0
    0.0000    0.0000    0.0000 C   0  0  0  0  0  0  0  0  0  0  0  0
    0.0000    0.0000    0.0000 N   0  0  0  0  0  0  0  0  0  0  0  0
    0.0000    0.0000    0.0000 C   0  0  0  0  0  0  0  0  0  0  0  0
    0.0000    0.0000    0.0000 C   0  0  0  0  0  0  0  0  0  0  0  0
    0.0000    0.0000    0.0000 C   0  0  0  0  0  0  0  0  0  0  0  0
    0.0000    0.0000    0.0000 C   0  0  0  0  0  0  0  0  0  0  0  0
    0.0000    0.0000    0.0000 C   0  0  0  0  0  0  0  0  0  0  0  0
    0.0000    0.0000    0.0000 C   0  0  0  0  0  0  0  0  0  0  0  0
    0.0000    0.0000    0.0000 C   0  0  0  0  0  0  0  0  0  0  0  0
    0.0000    0.0000    0.0000 C   0  0  0  0  0  0  0  0  0  0  0  0
    0.0000    0.0000    0.0000 O   0  0  0  0  0  0  0  0  0  0  0  0
    0.0000    0.0000    0.0000 C   0  0  0  0  0  0  0  0  0  0  0  0
    0.0000    0.0000    0.0000 C   0  0  0  0  0  0  0  0  0  0  0  0
    0.0000    0.0000    0.0000 C   0  0  0  0  0  0  0  0  0  0  0  0
    0.0000    0.0000    0.0000 O   0  0  0  0  0  0  0  0  0  0  0  0
    0.0000    0.0000    0.0000 C   0  0  0  0  0  0  0  0  0  0  0  0
    0.0000    0.0000    0.0000 C   0  0  0  0  0  0  0  0  0  0  0  0
    0.0000    0.0000    0.0000 C   0  0  0  0  0  0  0  0  0  0  0  0
    0.0000    0.0000    0.0000 N   0  0  0  0  0  0  0  0  0  0  0  0
    0.0000    0.0000    0.0000 C   0  0  0  0  0  0  0  0  0  0  0  0
    0.0000    0.0000    0.0000 C   0  0  0  0  0  0  0  0  0  0  0  0
    0.0000    0.0000    0.0000 C   0  0  0  0  0  0  0  0  0  0  0  0
    0.0000    0.0000    0.0000 C   0  0  0  0  0  0  0  0  0  0  0  0
    0.0000    0.0000    0.0000 C   0  0  0  0  0  0  0  0  0  0  0  0
    0.0000    0.0000    0.0000 C   0  0  0  0  0  0  0  0  0  0  0  0
    0.0000    0.0000    0.0000 C   0  0  0  0  0  0  0  0  0  0  0  0
    0.0000    0.0000    0.0000 Cl  0  0  0  0  0  0  0  0  0  0  0  0
    0.0000    0.0000    0.0000 C   0  0  0  0  0  0  0  0  0  0  0  0
    0.0000    0.0000    0.0000 C   0  0  0  0  0  0  0  0  0  0  0  0
  1  2  1  0
  2  3  1  0
  3  4  2  0
  4  5  1  0
  5  6  2  0
  6  7  1  0
  7  8  1  0
  8  9  1  0
  9 10  1  0
 10 11  1  0
 11 12  1  0
 12 13  1  0
  9 14  1  0
 14 15  1  0
 15 16  1  0
 16 17  1  0
 17 18  1  0
 18 19  1  0
 19 20  2  0
 17 21  1  0
 21 22  2  0
 21 23  1  0
 23 24  1  0
 24 25  1  0
 25 26  1  0
 26 27  1  0
 27 28  1  0
 28 29  1  0
 29 30  1  0
 30 31  2  0
 31 32  1  0
 32 33  2  0
 33 34  1  0
 33 35  1  0
 35 36  2  0
 19  3  1  0
 20  6  1  0
 25  8  1  0
 13 11  1  0
 20 16  1  0
 25 16  1  0
 36 30  1  0
M  END
>  <pIC50>  (375) 
9.92

>  <ChEMBL_ID>  (375) 
CHEMBL384497

>  <document_journal>  (375) 
J. Med. Chem.

>  <bao_endpoint>  (375) 
BAO_0000190

>  <potential_duplicate>  (375) 
False

>  <uo_units>  (375) 
UO_0000065

>  <canonical_smiles>  (375) 
COc1ccc2C[C@H]3N(CC4CC4)CC[C@@]56[C@@H](Oc1c25)C(=O)CC[C@@]36NCCCc7ccc(Cl)cc7

>  <parent_molecule_chembl_id>  (375) 
CHEMBL384497

>  <assay_type>  (375) 
F

>  <src_id>  (375) 
1

>  <ligand_efficiency>  (375) 
None

>  <standard_flag>  (375) 
True

>  <molecule_chembl_id>  (375) 
CHEMBL384497

>  <target_organism>  (375) 
Homo sapiens

>  <standard_units>  (375) 
nM

>  <record_id>  (375) 
606866

>  <document_chembl_id>  (375) 
CHEMBL1137387

>  <bao_format>  (375) 
BAO_0000219

>  <data_validity_description>  (375) 
None

>  <activity_id>  (375) 
1774803

>  <standard_type>  (375) 
IC50

>  <target_chembl_id>  (375) 
CHEMBL233

>  <data_validity_comment>  (375) 
None

>  <published_value>  (375) 
0.12

>  <document_year>  (375) 
2006

>  <target_pref_name>  (375) 
Mu opioid receptor

>  <assay_chembl_id>  (375) 
CHEMBL907187

>  <standard_relation>  (375) 
=

>  <assay_description>  (375) 
Activity at human recombinant mu opioid receptor expressed in CHO cells assessed as stimulation of [35S]GTP-gamma-S binding

>  <published_relation>  (375) 
=

>  <standard_value>  (375) 
0.12

>  <qudt_units>  (375) 
http://www.openphacts.org/units/Nanomolar

>  <target_tax_id>  (375) 
9606

>  <bao_label>  (375) 
cell-based format

>  <published_units>  (375) 
nM

>  <pchembl_value>  (375) 
9.92

>  <published_type>  (375) 
IC50

>  <activity_comment>  (375) 
None

$$$$

     RDKit          

 37 43  0  0  0  0  0  0  0  0999 V2000
    0.0000    0.0000    0.0000 C   0  0  0  0  0  0  0  0  0  0  0  0
    0.0000    0.0000    0.0000 O   0  0  0  0  0  0  0  0  0  0  0  0
    0.0000    0.0000    0.0000 C   0  0  0  0  0  0  0  0  0  0  0  0
    0.0000    0.0000    0.0000 C   0  0  0  0  0  0  0  0  0  0  0  0
    0.0000    0.0000    0.0000 C   0  0  0  0  0  0  0  0  0  0  0  0
    0.0000    0.0000    0.0000 C   0  0  0  0  0  0  0  0  0  0  0  0
    0.0000    0.0000    0.0000 C   0  0  0  0  0  0  0  0  0  0  0  0
    0.0000    0.0000    0.0000 C   0  0  0  0  0  0  0  0  0  0  0  0
    0.0000    0.0000    0.0000 N   0  0  0  0  0  0  0  0  0  0  0  0
    0.0000    0.0000    0.0000 C   0  0  0  0  0  0  0  0  0  0  0  0
    0.0000    0.0000    0.0000 C   0  0  0  0  0  0  0  0  0  0  0  0
    0.0000    0.0000    0.0000 C   0  0  0  0  0  0  0  0  0  0  0  0
    0.0000    0.0000    0.0000 C   0  0  0  0  0  0  0  0  0  0  0  0
    0.0000    0.0000    0.0000 C   0  0  0  0  0  0  0  0  0  0  0  0
    0.0000    0.0000    0.0000 C   0  0  0  0  0  0  0  0  0  0  0  0
    0.0000    0.0000    0.0000 C   0  0  0  0  0  0  0  0  0  0  0  0
    0.0000    0.0000    0.0000 C   0  0  0  0  0  0  0  0  0  0  0  0
    0.0000    0.0000    0.0000 O   0  0  0  0  0  0  0  0  0  0  0  0
    0.0000    0.0000    0.0000 C   0  0  0  0  0  0  0  0  0  0  0  0
    0.0000    0.0000    0.0000 C   0  0  0  0  0  0  0  0  0  0  0  0
    0.0000    0.0000    0.0000 C   0  0  0  0  0  0  0  0  0  0  0  0
    0.0000    0.0000    0.0000 O   0  0  0  0  0  0  0  0  0  0  0  0
    0.0000    0.0000    0.0000 C   0  0  0  0  0  0  0  0  0  0  0  0
    0.0000    0.0000    0.0000 C   0  0  0  0  0  0  0  0  0  0  0  0
    0.0000    0.0000    0.0000 C   0  0  0  0  0  0  0  0  0  0  0  0
    0.0000    0.0000    0.0000 N   0  0  0  0  0  0  0  0  0  0  0  0
    0.0000    0.0000    0.0000 C   0  0  0  0  0  0  0  0  0  0  0  0
    0.0000    0.0000    0.0000 O   0  0  0  0  0  0  0  0  0  0  0  0
    0.0000    0.0000    0.0000 C   0  0  0  0  0  0  0  0  0  0  0  0
    0.0000    0.0000    0.0000 C   0  0  0  0  0  0  0  0  0  0  0  0
    0.0000    0.0000    0.0000 C   0  0  0  0  0  0  0  0  0  0  0  0
    0.0000    0.0000    0.0000 C   0  0  0  0  0  0  0  0  0  0  0  0
    0.0000    0.0000    0.0000 C   0  0  0  0  0  0  0  0  0  0  0  0
    0.0000    0.0000    0.0000 C   0  0  0  0  0  0  0  0  0  0  0  0
    0.0000    0.0000    0.0000 Cl  0  0  0  0  0  0  0  0  0  0  0  0
    0.0000    0.0000    0.0000 C   0  0  0  0  0  0  0  0  0  0  0  0
    0.0000    0.0000    0.0000 C   0  0  0  0  0  0  0  0  0  0  0  0
  1  2  1  0
  2  3  1  0
  3  4  2  0
  4  5  1  0
  5  6  2  0
  6  7  1  0
  7  8  1  0
  8  9  1  0
  9 10  1  0
 10 11  1  0
 11 12  1  0
 12 13  1  0
  9 14  1  0
 14 15  1  0
 15 16  1  0
 16 17  1  0
 17 18  1  0
 18 19  1  0
 19 20  2  0
 17 21  1  0
 21 22  2  0
 21 23  1  0
 23 24  1  0
 24 25  1  0
 25 26  1  0
 26 27  1  0
 27 28  2  0
 27 29  1  0
 29 30  1  0
 30 31  1  0
 31 32  2  0
 32 33  1  0
 33 34  2  0
 34 35  1  0
 34 36  1  0
 36 37  2  0
 19  3  1  0
 20  6  1  0
 25  8  1  0
 13 11  1  0
 20 16  1  0
 25 16  1  0
 37 31  1  0
M  END
>  <pIC50>  (376) 
10.52

>  <ChEMBL_ID>  (376) 
CHEMBL217395

>  <document_journal>  (376) 
J. Med. Chem.

>  <bao_endpoint>  (376) 
BAO_0000190

>  <potential_duplicate>  (376) 
False

>  <uo_units>  (376) 
UO_0000065

>  <canonical_smiles>  (376) 
COc1ccc2C[C@H]3N(CC4CC4)CC[C@@]56[C@@H](Oc1c25)C(=O)CC[C@@]36NC(=O)CCc7ccc(Cl)cc7

>  <parent_molecule_chembl_id>  (376) 
CHEMBL217395

>  <assay_type>  (376) 
F

>  <src_id>  (376) 
1

>  <ligand_efficiency>  (376) 
None

>  <standard_flag>  (376) 
True

>  <molecule_chembl_id>  (376) 
CHEMBL217395

>  <target_organism>  (376) 
Homo sapiens

>  <standard_units>  (376) 
nM

>  <record_id>  (376) 
606864

>  <document_chembl_id>  (376) 
CHEMBL1137387

>  <bao_format>  (376) 
BAO_0000219

>  <data_validity_description>  (376) 
None

>  <activity_id>  (376) 
1774805

>  <standard_type>  (376) 
IC50

>  <target_chembl_id>  (376) 
CHEMBL233

>  <data_validity_comment>  (376) 
None

>  <published_value>  (376) 
0.03

>  <document_year>  (376) 
2006

>  <target_pref_name>  (376) 
Mu opioid receptor

>  <assay_chembl_id>  (376) 
CHEMBL907187

>  <standard_relation>  (376) 
=

>  <assay_description>  (376) 
Activity at human recombinant mu opioid receptor expressed in CHO cells assessed as stimulation of [35S]GTP-gamma-S binding

>  <published_relation>  (376) 
=

>  <standard_value>  (376) 
0.03

>  <qudt_units>  (376) 
http://www.openphacts.org/units/Nanomolar

>  <target_tax_id>  (376) 
9606

>  <bao_label>  (376) 
cell-based format

>  <published_units>  (376) 
nM

>  <pchembl_value>  (376) 
10.52

>  <published_type>  (376) 
IC50

>  <activity_comment>  (376) 
None

$$$$

     RDKit          

 26 29  0  0  0  0  0  0  0  0999 V2000
    0.0000    0.0000    0.0000 C   0  0  0  0  0  0  0  0  0  0  0  0
    0.0000    0.0000    0.0000 C   0  0  0  0  0  0  0  0  0  0  0  0
    0.0000    0.0000    0.0000 C   0  0  0  0  0  0  0  0  0  0  0  0
    0.0000    0.0000    0.0000 N   0  0  0  0  0  0  0  0  0  0  0  0
    0.0000    0.0000    0.0000 C   0  0  0  0  0  0  0  0  0  0  0  0
    0.0000    0.0000    0.0000 C   0  0  0  0  0  0  0  0  0  0  0  0
    0.0000    0.0000    0.0000 N   0  0  0  0  0  0  0  0  0  0  0  0
    0.0000    0.0000    0.0000 C   0  0  0  0  0  0  0  0  0  0  0  0
    0.0000    0.0000    0.0000 C   0  0  0  0  0  0  0  0  0  0  0  0
    0.0000    0.0000    0.0000 C   0  0  0  0  0  0  0  0  0  0  0  0
    0.0000    0.0000    0.0000 C   0  0  0  0  0  0  0  0  0  0  0  0
    0.0000    0.0000    0.0000 C   0  0  0  0  0  0  0  0  0  0  0  0
    0.0000    0.0000    0.0000 C   0  0  0  0  0  0  0  0  0  0  0  0
    0.0000    0.0000    0.0000 C   0  0  0  0  0  0  0  0  0  0  0  0
    0.0000    0.0000    0.0000 C   0  0  0  0  0  0  0  0  0  0  0  0
    0.0000    0.0000    0.0000 C   0  0  0  0  0  0  0  0  0  0  0  0
    0.0000    0.0000    0.0000 C   0  0  0  0  0  0  0  0  0  0  0  0
    0.0000    0.0000    0.0000 C   0  0  0  0  0  0  0  0  0  0  0  0
    0.0000    0.0000    0.0000 C   0  0  0  0  0  0  0  0  0  0  0  0
    0.0000    0.0000    0.0000 C   0  0  0  0  0  0  0  0  0  0  0  0
    0.0000    0.0000    0.0000 C   0  0  0  0  0  0  0  0  0  0  0  0
    0.0000    0.0000    0.0000 C   0  0  0  0  0  0  0  0  0  0  0  0
    0.0000    0.0000    0.0000 C   0  0  0  0  0  0  0  0  0  0  0  0
    0.0000    0.0000    0.0000 C   0  0  0  0  0  0  0  0  0  0  0  0
    0.0000    0.0000    0.0000 O   0  0  0  0  0  0  0  0  0  0  0  0
    0.0000    0.0000    0.0000 C   0  0  0  0  0  0  0  0  0  0  0  0
  1  2  1  0
  2  3  1  0
  3  4  1  0
  4  5  1  0
  5  6  1  0
  6  7  1  0
  7  8  1  0
  8  9  1  0
  9 10  1  0
 10 11  1  0
 11 12  1  0
 12 13  1  0
 13 14  1  0
  7 15  1  0
 15 16  1  0
 16 17  1  0
 17 18  1  0
 18 19  1  0
 18 20  1  0
 20 21  2  0
 21 22  1  0
 22 23  2  0
 23 24  1  0
 24 25  1  0
 24 26  2  0
 18  2  1  0
 16  4  1  0
 14  9  1  0
 26 20  1  0
M  END
>  <pIC50>  (377) 
8.96

>  <ChEMBL_ID>  (377) 
CHEMBL376413

>  <document_journal>  (377) 
J. Med. Chem.

>  <bao_endpoint>  (377) 
BAO_0000190

>  <potential_duplicate>  (377) 
False

>  <uo_units>  (377) 
UO_0000065

>  <canonical_smiles>  (377) 
C[C@H]1CN2CCN(CC3CCCCC3)C[C@H]2C[C@@]1(C)c4cccc(O)c4

>  <parent_molecule_chembl_id>  (377) 
CHEMBL376413

>  <assay_type>  (377) 
F

>  <src_id>  (377) 
1

>  <ligand_efficiency>  (377) 
None

>  <standard_flag>  (377) 
True

>  <molecule_chembl_id>  (377) 
CHEMBL376413

>  <target_organism>  (377) 
Homo sapiens

>  <standard_units>  (377) 
nM

>  <record_id>  (377) 
619689

>  <document_chembl_id>  (377) 
CHEMBL1137297

>  <bao_format>  (377) 
BAO_0000219

>  <data_validity_description>  (377) 
None

>  <activity_id>  (377) 
1795451

>  <standard_type>  (377) 
IC50

>  <target_chembl_id>  (377) 
CHEMBL233

>  <data_validity_comment>  (377) 
None

>  <published_value>  (377) 
1.1

>  <document_year>  (377) 
2006

>  <target_pref_name>  (377) 
Mu opioid receptor

>  <assay_chembl_id>  (377) 
CHEMBL909298

>  <standard_relation>  (377) 
=

>  <assay_description>  (377) 
Antagonist activity assessed as inhibition of loperamide-stimulated [35S]GTPgammaS binding to human mu opioid receptor expressed in CHO cells

>  <published_relation>  (377) 
=

>  <standard_value>  (377) 
1.1

>  <qudt_units>  (377) 
http://www.openphacts.org/units/Nanomolar

>  <target_tax_id>  (377) 
9606

>  <bao_label>  (377) 
cell-based format

>  <published_units>  (377) 
nM

>  <pchembl_value>  (377) 
8.96

>  <published_type>  (377) 
IC50

>  <activity_comment>  (377) 
None

$$$$

     RDKit          

 27 30  0  0  0  0  0  0  0  0999 V2000
    0.0000    0.0000    0.0000 C   0  0  0  0  0  0  0  0  0  0  0  0
    0.0000    0.0000    0.0000 C   0  0  0  0  0  0  0  0  0  0  0  0
    0.0000    0.0000    0.0000 C   0  0  0  0  0  0  0  0  0  0  0  0
    0.0000    0.0000    0.0000 N   0  0  0  0  0  0  0  0  0  0  0  0
    0.0000    0.0000    0.0000 C   0  0  0  0  0  0  0  0  0  0  0  0
    0.0000    0.0000    0.0000 C   0  0  0  0  0  0  0  0  0  0  0  0
    0.0000    0.0000    0.0000 N   0  0  0  0  0  0  0  0  0  0  0  0
    0.0000    0.0000    0.0000 C   0  0  0  0  0  0  0  0  0  0  0  0
    0.0000    0.0000    0.0000 C   0  0  0  0  0  0  0  0  0  0  0  0
    0.0000    0.0000    0.0000 C   0  0  0  0  0  0  0  0  0  0  0  0
    0.0000    0.0000    0.0000 C   0  0  0  0  0  0  0  0  0  0  0  0
    0.0000    0.0000    0.0000 C   0  0  0  0  0  0  0  0  0  0  0  0
    0.0000    0.0000    0.0000 C   0  0  0  0  0  0  0  0  0  0  0  0
    0.0000    0.0000    0.0000 C   0  0  0  0  0  0  0  0  0  0  0  0
    0.0000    0.0000    0.0000 C   0  0  0  0  0  0  0  0  0  0  0  0
    0.0000    0.0000    0.0000 C   0  0  0  0  0  0  0  0  0  0  0  0
    0.0000    0.0000    0.0000 C   0  0  0  0  0  0  0  0  0  0  0  0
    0.0000    0.0000    0.0000 C   0  0  0  0  0  0  0  0  0  0  0  0
    0.0000    0.0000    0.0000 C   0  0  0  0  0  0  0  0  0  0  0  0
    0.0000    0.0000    0.0000 O   0  0  0  0  0  0  0  0  0  0  0  0
    0.0000    0.0000    0.0000 N   0  0  0  0  0  0  0  0  0  0  0  0
    0.0000    0.0000    0.0000 C   0  0  0  0  0  0  0  0  0  0  0  0
    0.0000    0.0000    0.0000 C   0  0  0  0  0  0  0  0  0  0  0  0
    0.0000    0.0000    0.0000 C   0  0  0  0  0  0  0  0  0  0  0  0
    0.0000    0.0000    0.0000 C   0  0  0  0  0  0  0  0  0  0  0  0
    0.0000    0.0000    0.0000 C   0  0  0  0  0  0  0  0  0  0  0  0
    0.0000    0.0000    0.0000 C   0  0  0  0  0  0  0  0  0  0  0  0
  1  2  1  0
  2  3  1  0
  3  4  1  0
  4  5  1  0
  5  6  1  0
  6  7  1  0
  7  8  1  0
  8  9  1  0
  9 10  1  0
 10 11  1  0
 11 12  1  0
 11 13  1  0
 13 14  2  0
 14 15  1  0
 15 16  2  0
 16 17  1  0
 17 18  2  0
 17 19  1  0
 19 20  2  0
 19 21  1  0
  6 22  1  0
 22 23  2  0
 23 24  1  0
 24 25  2  0
 25 26  1  0
 26 27  2  0
 11  2  1  0
  9  4  1  0
 18 13  1  0
 27 22  1  0
M  END
>  <pIC50>  (378) 
8.82

>  <ChEMBL_ID>  (378) 
CHEMBL373707

>  <document_journal>  (378) 
J. Med. Chem.

>  <bao_endpoint>  (378) 
BAO_0000190

>  <potential_duplicate>  (378) 
False

>  <uo_units>  (378) 
UO_0000065

>  <canonical_smiles>  (378) 
C[C@H]1CN2C[C@@H](NC[C@H]2C[C@@]1(C)c3cccc(c3)C(=O)N)c4ccccc4

>  <parent_molecule_chembl_id>  (378) 
CHEMBL373707

>  <assay_type>  (378) 
F

>  <src_id>  (378) 
1

>  <ligand_efficiency>  (378) 
None

>  <standard_flag>  (378) 
True

>  <molecule_chembl_id>  (378) 
CHEMBL373707

>  <target_organism>  (378) 
Homo sapiens

>  <standard_units>  (378) 
nM

>  <record_id>  (378) 
619646

>  <document_chembl_id>  (378) 
CHEMBL1137297

>  <bao_format>  (378) 
BAO_0000219

>  <data_validity_description>  (378) 
None

>  <activity_id>  (378) 
1795491

>  <standard_type>  (378) 
IC50

>  <target_chembl_id>  (378) 
CHEMBL233

>  <data_validity_comment>  (378) 
None

>  <published_value>  (378) 
1.5

>  <document_year>  (378) 
2006

>  <target_pref_name>  (378) 
Mu opioid receptor

>  <assay_chembl_id>  (378) 
CHEMBL909298

>  <standard_relation>  (378) 
=

>  <assay_description>  (378) 
Antagonist activity assessed as inhibition of loperamide-stimulated [35S]GTPgammaS binding to human mu opioid receptor expressed in CHO cells

>  <published_relation>  (378) 
=

>  <standard_value>  (378) 
1.5

>  <qudt_units>  (378) 
http://www.openphacts.org/units/Nanomolar

>  <target_tax_id>  (378) 
9606

>  <bao_label>  (378) 
cell-based format

>  <published_units>  (378) 
nM

>  <pchembl_value>  (378) 
8.82

>  <published_type>  (378) 
IC50

>  <activity_comment>  (378) 
None

$$$$

     RDKit          

 34 38  0  0  0  0  0  0  0  0999 V2000
    0.0000    0.0000    0.0000 C   0  0  0  0  0  0  0  0  0  0  0  0
    0.0000    0.0000    0.0000 C   0  0  0  0  0  0  0  0  0  0  0  0
    0.0000    0.0000    0.0000 C   0  0  0  0  0  0  0  0  0  0  0  0
    0.0000    0.0000    0.0000 N   0  0  0  0  0  0  0  0  0  0  0  0
    0.0000    0.0000    0.0000 C   0  0  0  0  0  0  0  0  0  0  0  0
    0.0000    0.0000    0.0000 C   0  0  0  0  0  0  0  0  0  0  0  0
    0.0000    0.0000    0.0000 N   0  0  0  0  0  0  0  0  0  0  0  0
    0.0000    0.0000    0.0000 C   0  0  0  0  0  0  0  0  0  0  0  0
    0.0000    0.0000    0.0000 C   0  0  0  0  0  0  0  0  0  0  0  0
    0.0000    0.0000    0.0000 C   0  0  0  0  0  0  0  0  0  0  0  0
    0.0000    0.0000    0.0000 C   0  0  0  0  0  0  0  0  0  0  0  0
    0.0000    0.0000    0.0000 C   0  0  0  0  0  0  0  0  0  0  0  0
    0.0000    0.0000    0.0000 C   0  0  0  0  0  0  0  0  0  0  0  0
    0.0000    0.0000    0.0000 C   0  0  0  0  0  0  0  0  0  0  0  0
    0.0000    0.0000    0.0000 C   0  0  0  0  0  0  0  0  0  0  0  0
    0.0000    0.0000    0.0000 C   0  0  0  0  0  0  0  0  0  0  0  0
    0.0000    0.0000    0.0000 C   0  0  0  0  0  0  0  0  0  0  0  0
    0.0000    0.0000    0.0000 C   0  0  0  0  0  0  0  0  0  0  0  0
    0.0000    0.0000    0.0000 C   0  0  0  0  0  0  0  0  0  0  0  0
    0.0000    0.0000    0.0000 C   0  0  0  0  0  0  0  0  0  0  0  0
    0.0000    0.0000    0.0000 C   0  0  0  0  0  0  0  0  0  0  0  0
    0.0000    0.0000    0.0000 C   0  0  0  0  0  0  0  0  0  0  0  0
    0.0000    0.0000    0.0000 C   0  0  0  0  0  0  0  0  0  0  0  0
    0.0000    0.0000    0.0000 C   0  0  0  0  0  0  0  0  0  0  0  0
    0.0000    0.0000    0.0000 C   0  0  0  0  0  0  0  0  0  0  0  0
    0.0000    0.0000    0.0000 C   0  0  0  0  0  0  0  0  0  0  0  0
    0.0000    0.0000    0.0000 O   0  0  0  0  0  0  0  0  0  0  0  0
    0.0000    0.0000    0.0000 N   0  0  0  0  0  0  0  0  0  0  0  0
    0.0000    0.0000    0.0000 C   0  0  0  0  0  0  0  0  0  0  0  0
    0.0000    0.0000    0.0000 C   0  0  0  0  0  0  0  0  0  0  0  0
    0.0000    0.0000    0.0000 C   0  0  0  0  0  0  0  0  0  0  0  0
    0.0000    0.0000    0.0000 C   0  0  0  0  0  0  0  0  0  0  0  0
    0.0000    0.0000    0.0000 C   0  0  0  0  0  0  0  0  0  0  0  0
    0.0000    0.0000    0.0000 C   0  0  0  0  0  0  0  0  0  0  0  0
  1  2  1  0
  2  3  1  0
  3  4  1  0
  4  5  1  0
  5  6  1  0
  6  7  1  0
  7  8  1  0
  8  9  1  0
  9 10  2  0
 10 11  1  0
 11 12  2  0
 12 13  1  0
 13 14  2  0
  7 15  1  0
 15 16  1  0
 16 17  1  0
 17 18  1  0
 18 19  1  0
 18 20  1  0
 20 21  2  0
 21 22  1  0
 22 23  2  0
 23 24  1  0
 24 25  2  0
 24 26  1  0
 26 27  2  0
 26 28  1  0
  6 29  1  0
 29 30  2  0
 30 31  1  0
 31 32  2  0
 32 33  1  0
 33 34  2  0
 18  2  1  0
 16  4  1  0
 14  9  1  0
 25 20  1  0
 34 29  1  0
M  END
>  <pIC50>  (379) 
7.55

>  <ChEMBL_ID>  (379) 
CHEMBL373925

>  <document_journal>  (379) 
J. Med. Chem.

>  <bao_endpoint>  (379) 
BAO_0000190

>  <potential_duplicate>  (379) 
False

>  <uo_units>  (379) 
UO_0000065

>  <canonical_smiles>  (379) 
C[C@H]1CN2C[C@@H](N(Cc3ccccc3)C[C@H]2C[C@@]1(C)c4cccc(c4)C(=O)N)c5ccccc5

>  <parent_molecule_chembl_id>  (379) 
CHEMBL373925

>  <assay_type>  (379) 
F

>  <src_id>  (379) 
1

>  <ligand_efficiency>  (379) 
None

>  <standard_flag>  (379) 
True

>  <molecule_chembl_id>  (379) 
CHEMBL373925

>  <target_organism>  (379) 
Homo sapiens

>  <standard_units>  (379) 
nM

>  <record_id>  (379) 
619645

>  <document_chembl_id>  (379) 
CHEMBL1137297

>  <bao_format>  (379) 
BAO_0000219

>  <data_validity_description>  (379) 
None

>  <activity_id>  (379) 
1795492

>  <standard_type>  (379) 
IC50

>  <target_chembl_id>  (379) 
CHEMBL233

>  <data_validity_comment>  (379) 
None

>  <published_value>  (379) 
28

>  <document_year>  (379) 
2006

>  <target_pref_name>  (379) 
Mu opioid receptor

>  <assay_chembl_id>  (379) 
CHEMBL909298

>  <standard_relation>  (379) 
=

>  <assay_description>  (379) 
Antagonist activity assessed as inhibition of loperamide-stimulated [35S]GTPgammaS binding to human mu opioid receptor expressed in CHO cells

>  <published_relation>  (379) 
=

>  <standard_value>  (379) 
28

>  <qudt_units>  (379) 
http://www.openphacts.org/units/Nanomolar

>  <target_tax_id>  (379) 
9606

>  <bao_label>  (379) 
cell-based format

>  <published_units>  (379) 
nM

>  <pchembl_value>  (379) 
7.55

>  <published_type>  (379) 
IC50

>  <activity_comment>  (379) 
None

$$$$

     RDKit          

 32 36  0  0  0  0  0  0  0  0999 V2000
    0.0000    0.0000    0.0000 C   0  0  0  0  0  0  0  0  0  0  0  0
    0.0000    0.0000    0.0000 C   0  0  0  0  0  0  0  0  0  0  0  0
    0.0000    0.0000    0.0000 C   0  0  0  0  0  0  0  0  0  0  0  0
    0.0000    0.0000    0.0000 N   0  0  0  0  0  0  0  0  0  0  0  0
    0.0000    0.0000    0.0000 C   0  0  0  0  0  0  0  0  0  0  0  0
    0.0000    0.0000    0.0000 C   0  0  0  0  0  0  0  0  0  0  0  0
    0.0000    0.0000    0.0000 N   0  0  0  0  0  0  0  0  0  0  0  0
    0.0000    0.0000    0.0000 C   0  0  0  0  0  0  0  0  0  0  0  0
    0.0000    0.0000    0.0000 C   0  0  0  0  0  0  0  0  0  0  0  0
    0.0000    0.0000    0.0000 C   0  0  0  0  0  0  0  0  0  0  0  0
    0.0000    0.0000    0.0000 C   0  0  0  0  0  0  0  0  0  0  0  0
    0.0000    0.0000    0.0000 C   0  0  0  0  0  0  0  0  0  0  0  0
    0.0000    0.0000    0.0000 C   0  0  0  0  0  0  0  0  0  0  0  0
    0.0000    0.0000    0.0000 C   0  0  0  0  0  0  0  0  0  0  0  0
    0.0000    0.0000    0.0000 C   0  0  0  0  0  0  0  0  0  0  0  0
    0.0000    0.0000    0.0000 C   0  0  0  0  0  0  0  0  0  0  0  0
    0.0000    0.0000    0.0000 C   0  0  0  0  0  0  0  0  0  0  0  0
    0.0000    0.0000    0.0000 C   0  0  0  0  0  0  0  0  0  0  0  0
    0.0000    0.0000    0.0000 C   0  0  0  0  0  0  0  0  0  0  0  0
    0.0000    0.0000    0.0000 C   0  0  0  0  0  0  0  0  0  0  0  0
    0.0000    0.0000    0.0000 C   0  0  0  0  0  0  0  0  0  0  0  0
    0.0000    0.0000    0.0000 C   0  0  0  0  0  0  0  0  0  0  0  0
    0.0000    0.0000    0.0000 C   0  0  0  0  0  0  0  0  0  0  0  0
    0.0000    0.0000    0.0000 C   0  0  0  0  0  0  0  0  0  0  0  0
    0.0000    0.0000    0.0000 O   0  0  0  0  0  0  0  0  0  0  0  0
    0.0000    0.0000    0.0000 C   0  0  0  0  0  0  0  0  0  0  0  0
    0.0000    0.0000    0.0000 C   0  0  0  0  0  0  0  0  0  0  0  0
    0.0000    0.0000    0.0000 C   0  0  0  0  0  0  0  0  0  0  0  0
    0.0000    0.0000    0.0000 C   0  0  0  0  0  0  0  0  0  0  0  0
    0.0000    0.0000    0.0000 C   0  0  0  0  0  0  0  0  0  0  0  0
    0.0000    0.0000    0.0000 C   0  0  0  0  0  0  0  0  0  0  0  0
    0.0000    0.0000    0.0000 C   0  0  0  0  0  0  0  0  0  0  0  0
  1  2  1  0
  2  3  1  0
  3  4  1  0
  4  5  1  0
  5  6  1  0
  6  7  1  0
  7  8  1  0
  8  9  1  0
  9 10  2  0
 10 11  1  0
 11 12  2  0
 12 13  1  0
 13 14  2  0
  7 15  1  0
 15 16  1  0
 16 17  1  0
 17 18  1  0
 18 19  1  0
 18 20  1  0
 20 21  2  0
 21 22  1  0
 22 23  2  0
 23 24  1  0
 24 25  1  0
 24 26  2  0
  6 27  1  0
 27 28  2  0
 28 29  1  0
 29 30  2  0
 30 31  1  0
 31 32  2  0
 18  2  1  0
 16  4  1  0
 14  9  1  0
 26 20  1  0
 32 27  1  0
M  END
>  <pIC50>  (380) 
7.4

>  <ChEMBL_ID>  (380) 
CHEMBL412996

>  <document_journal>  (380) 
J. Med. Chem.

>  <bao_endpoint>  (380) 
BAO_0000190

>  <potential_duplicate>  (380) 
False

>  <uo_units>  (380) 
UO_0000065

>  <canonical_smiles>  (380) 
C[C@H]1CN2C[C@@H](N(Cc3ccccc3)C[C@H]2C[C@@]1(C)c4cccc(O)c4)c5ccccc5

>  <parent_molecule_chembl_id>  (380) 
CHEMBL412996

>  <assay_type>  (380) 
F

>  <src_id>  (380) 
1

>  <ligand_efficiency>  (380) 
None

>  <standard_flag>  (380) 
True

>  <molecule_chembl_id>  (380) 
CHEMBL412996

>  <target_organism>  (380) 
Homo sapiens

>  <standard_units>  (380) 
nM

>  <record_id>  (380) 
619641

>  <document_chembl_id>  (380) 
CHEMBL1137297

>  <bao_format>  (380) 
BAO_0000219

>  <data_validity_description>  (380) 
None

>  <activity_id>  (380) 
1795496

>  <standard_type>  (380) 
IC50

>  <target_chembl_id>  (380) 
CHEMBL233

>  <data_validity_comment>  (380) 
None

>  <published_value>  (380) 
40

>  <document_year>  (380) 
2006

>  <target_pref_name>  (380) 
Mu opioid receptor

>  <assay_chembl_id>  (380) 
CHEMBL909298

>  <standard_relation>  (380) 
=

>  <assay_description>  (380) 
Antagonist activity assessed as inhibition of loperamide-stimulated [35S]GTPgammaS binding to human mu opioid receptor expressed in CHO cells

>  <published_relation>  (380) 
=

>  <standard_value>  (380) 
40

>  <qudt_units>  (380) 
http://www.openphacts.org/units/Nanomolar

>  <target_tax_id>  (380) 
9606

>  <bao_label>  (380) 
cell-based format

>  <published_units>  (380) 
nM

>  <pchembl_value>  (380) 
7.4

>  <published_type>  (380) 
IC50

>  <activity_comment>  (380) 
None

$$$$

     RDKit          

 26 29  0  0  0  0  0  0  0  0999 V2000
    0.0000    0.0000    0.0000 C   0  0  0  0  0  0  0  0  0  0  0  0
    0.0000    0.0000    0.0000 C   0  0  0  0  0  0  0  0  0  0  0  0
    0.0000    0.0000    0.0000 C   0  0  0  0  0  0  0  0  0  0  0  0
    0.0000    0.0000    0.0000 N   0  0  0  0  0  0  0  0  0  0  0  0
    0.0000    0.0000    0.0000 C   0  0  0  0  0  0  0  0  0  0  0  0
    0.0000    0.0000    0.0000 C   0  0  0  0  0  0  0  0  0  0  0  0
    0.0000    0.0000    0.0000 N   0  0  0  0  0  0  0  0  0  0  0  0
    0.0000    0.0000    0.0000 C   0  0  0  0  0  0  0  0  0  0  0  0
    0.0000    0.0000    0.0000 C   0  0  0  0  0  0  0  0  0  0  0  0
    0.0000    0.0000    0.0000 C   0  0  0  0  0  0  0  0  0  0  0  0
    0.0000    0.0000    0.0000 C   0  0  0  0  0  0  0  0  0  0  0  0
    0.0000    0.0000    0.0000 C   0  0  0  0  0  0  0  0  0  0  0  0
    0.0000    0.0000    0.0000 C   0  0  0  0  0  0  0  0  0  0  0  0
    0.0000    0.0000    0.0000 C   0  0  0  0  0  0  0  0  0  0  0  0
    0.0000    0.0000    0.0000 C   0  0  0  0  0  0  0  0  0  0  0  0
    0.0000    0.0000    0.0000 C   0  0  0  0  0  0  0  0  0  0  0  0
    0.0000    0.0000    0.0000 C   0  0  0  0  0  0  0  0  0  0  0  0
    0.0000    0.0000    0.0000 C   0  0  0  0  0  0  0  0  0  0  0  0
    0.0000    0.0000    0.0000 O   0  0  0  0  0  0  0  0  0  0  0  0
    0.0000    0.0000    0.0000 C   0  0  0  0  0  0  0  0  0  0  0  0
    0.0000    0.0000    0.0000 C   0  0  0  0  0  0  0  0  0  0  0  0
    0.0000    0.0000    0.0000 C   0  0  0  0  0  0  0  0  0  0  0  0
    0.0000    0.0000    0.0000 C   0  0  0  0  0  0  0  0  0  0  0  0
    0.0000    0.0000    0.0000 C   0  0  0  0  0  0  0  0  0  0  0  0
    0.0000    0.0000    0.0000 C   0  0  0  0  0  0  0  0  0  0  0  0
    0.0000    0.0000    0.0000 C   0  0  0  0  0  0  0  0  0  0  0  0
  1  2  1  0
  2  3  1  0
  3  4  1  0
  4  5  1  0
  5  6  1  0
  6  7  1  0
  7  8  1  0
  7  9  1  0
  9 10  1  0
 10 11  1  0
 11 12  1  0
 12 13  1  0
 12 14  1  0
 14 15  2  0
 15 16  1  0
 16 17  2  0
 17 18  1  0
 18 19  1  0
 18 20  2  0
  6 21  1  0
 21 22  2  0
 22 23  1  0
 23 24  2  0
 24 25  1  0
 25 26  2  0
 12  2  1  0
 10  4  1  0
 20 14  1  0
 26 21  1  0
M  END
>  <pIC50>  (381) 
7.59

>  <ChEMBL_ID>  (381) 
CHEMBL218520

>  <document_journal>  (381) 
J. Med. Chem.

>  <bao_endpoint>  (381) 
BAO_0000190

>  <potential_duplicate>  (381) 
False

>  <uo_units>  (381) 
UO_0000065

>  <canonical_smiles>  (381) 
C[C@H]1CN2C[C@@H](N(C)C[C@H]2C[C@@]1(C)c3cccc(O)c3)c4ccccc4

>  <parent_molecule_chembl_id>  (381) 
CHEMBL218520

>  <assay_type>  (381) 
F

>  <src_id>  (381) 
1

>  <ligand_efficiency>  (381) 
None

>  <standard_flag>  (381) 
True

>  <molecule_chembl_id>  (381) 
CHEMBL218520

>  <target_organism>  (381) 
Homo sapiens

>  <standard_units>  (381) 
nM

>  <record_id>  (381) 
619640

>  <document_chembl_id>  (381) 
CHEMBL1137297

>  <bao_format>  (381) 
BAO_0000219

>  <data_validity_description>  (381) 
None

>  <activity_id>  (381) 
1795497

>  <standard_type>  (381) 
IC50

>  <target_chembl_id>  (381) 
CHEMBL233

>  <data_validity_comment>  (381) 
None

>  <published_value>  (381) 
26

>  <document_year>  (381) 
2006

>  <target_pref_name>  (381) 
Mu opioid receptor

>  <assay_chembl_id>  (381) 
CHEMBL909298

>  <standard_relation>  (381) 
=

>  <assay_description>  (381) 
Antagonist activity assessed as inhibition of loperamide-stimulated [35S]GTPgammaS binding to human mu opioid receptor expressed in CHO cells

>  <published_relation>  (381) 
=

>  <standard_value>  (381) 
26

>  <qudt_units>  (381) 
http://www.openphacts.org/units/Nanomolar

>  <target_tax_id>  (381) 
9606

>  <bao_label>  (381) 
cell-based format

>  <published_units>  (381) 
nM

>  <pchembl_value>  (381) 
7.59

>  <published_type>  (381) 
IC50

>  <activity_comment>  (381) 
None

$$$$

     RDKit          

 28 31  0  0  0  0  0  0  0  0999 V2000
    0.0000    0.0000    0.0000 C   0  0  0  0  0  0  0  0  0  0  0  0
    0.0000    0.0000    0.0000 C   0  0  0  0  0  0  0  0  0  0  0  0
    0.0000    0.0000    0.0000 C   0  0  0  0  0  0  0  0  0  0  0  0
    0.0000    0.0000    0.0000 N   0  0  0  0  0  0  0  0  0  0  0  0
    0.0000    0.0000    0.0000 C   0  0  0  0  0  0  0  0  0  0  0  0
    0.0000    0.0000    0.0000 C   0  0  0  0  0  0  0  0  0  0  0  0
    0.0000    0.0000    0.0000 N   0  0  0  0  0  0  0  0  0  0  0  0
    0.0000    0.0000    0.0000 C   0  0  0  0  0  0  0  0  0  0  0  0
    0.0000    0.0000    0.0000 C   0  0  0  0  0  0  0  0  0  0  0  0
    0.0000    0.0000    0.0000 C   0  0  0  0  0  0  0  0  0  0  0  0
    0.0000    0.0000    0.0000 C   0  0  0  0  0  0  0  0  0  0  0  0
    0.0000    0.0000    0.0000 C   0  0  0  0  0  0  0  0  0  0  0  0
    0.0000    0.0000    0.0000 C   0  0  0  0  0  0  0  0  0  0  0  0
    0.0000    0.0000    0.0000 C   0  0  0  0  0  0  0  0  0  0  0  0
    0.0000    0.0000    0.0000 C   0  0  0  0  0  0  0  0  0  0  0  0
    0.0000    0.0000    0.0000 C   0  0  0  0  0  0  0  0  0  0  0  0
    0.0000    0.0000    0.0000 C   0  0  0  0  0  0  0  0  0  0  0  0
    0.0000    0.0000    0.0000 O   0  0  0  0  0  0  0  0  0  0  0  0
    0.0000    0.0000    0.0000 C   0  0  0  0  0  0  0  0  0  0  0  0
    0.0000    0.0000    0.0000 C   0  0  0  0  0  0  0  0  0  0  0  0
    0.0000    0.0000    0.0000 O   0  0  0  0  0  0  0  0  0  0  0  0
    0.0000    0.0000    0.0000 C   0  0  0  0  0  0  0  0  0  0  0  0
    0.0000    0.0000    0.0000 C   0  0  0  0  0  0  0  0  0  0  0  0
    0.0000    0.0000    0.0000 C   0  0  0  0  0  0  0  0  0  0  0  0
    0.0000    0.0000    0.0000 C   0  0  0  0  0  0  0  0  0  0  0  0
    0.0000    0.0000    0.0000 C   0  0  0  0  0  0  0  0  0  0  0  0
    0.0000    0.0000    0.0000 C   0  0  0  0  0  0  0  0  0  0  0  0
    0.0000    0.0000    0.0000 C   0  0  0  0  0  0  0  0  0  0  0  0
  1  2  1  0
  2  3  1  0
  3  4  1  0
  4  5  1  0
  5  6  1  0
  6  7  1  0
  7  8  1  0
  8  9  1  0
  9 10  1  0
 10 11  1  0
 11 12  1  0
 11 13  1  0
 13 14  2  0
 14 15  1  0
 15 16  2  0
 16 17  1  0
 17 18  1  0
 17 19  2  0
  7 20  1  0
 20 21  2  0
 20 22  1  0
  6 23  1  0
 23 24  2  0
 24 25  1  0
 25 26  2  0
 26 27  1  0
 27 28  2  0
 11  2  1  0
  9  4  1  0
 19 13  1  0
 28 23  1  0
M  END
>  <pIC50>  (382) 
6.66

>  <ChEMBL_ID>  (382) 
CHEMBL218706

>  <document_journal>  (382) 
J. Med. Chem.

>  <bao_endpoint>  (382) 
BAO_0000190

>  <potential_duplicate>  (382) 
False

>  <uo_units>  (382) 
UO_0000065

>  <canonical_smiles>  (382) 
C[C@H]1CN2C[C@@H](N(C[C@H]2C[C@@]1(C)c3cccc(O)c3)C(=O)C)c4ccccc4

>  <parent_molecule_chembl_id>  (382) 
CHEMBL218706

>  <assay_type>  (382) 
F

>  <src_id>  (382) 
1

>  <ligand_efficiency>  (382) 
None

>  <standard_flag>  (382) 
True

>  <molecule_chembl_id>  (382) 
CHEMBL218706

>  <target_organism>  (382) 
Homo sapiens

>  <standard_units>  (382) 
nM

>  <record_id>  (382) 
619639

>  <document_chembl_id>  (382) 
CHEMBL1137297

>  <bao_format>  (382) 
BAO_0000219

>  <data_validity_description>  (382) 
None

>  <activity_id>  (382) 
1795498

>  <standard_type>  (382) 
IC50

>  <target_chembl_id>  (382) 
CHEMBL233

>  <data_validity_comment>  (382) 
None

>  <published_value>  (382) 
220

>  <document_year>  (382) 
2006

>  <target_pref_name>  (382) 
Mu opioid receptor

>  <assay_chembl_id>  (382) 
CHEMBL909298

>  <standard_relation>  (382) 
=

>  <assay_description>  (382) 
Antagonist activity assessed as inhibition of loperamide-stimulated [35S]GTPgammaS binding to human mu opioid receptor expressed in CHO cells

>  <published_relation>  (382) 
=

>  <standard_value>  (382) 
220

>  <qudt_units>  (382) 
http://www.openphacts.org/units/Nanomolar

>  <target_tax_id>  (382) 
9606

>  <bao_label>  (382) 
cell-based format

>  <published_units>  (382) 
nM

>  <pchembl_value>  (382) 
6.66

>  <published_type>  (382) 
IC50

>  <activity_comment>  (382) 
None

$$$$

     RDKit          

 25 28  0  0  0  0  0  0  0  0999 V2000
    0.0000    0.0000    0.0000 C   0  0  0  0  0  0  0  0  0  0  0  0
    0.0000    0.0000    0.0000 C   0  0  0  0  0  0  0  0  0  0  0  0
    0.0000    0.0000    0.0000 C   0  0  0  0  0  0  0  0  0  0  0  0
    0.0000    0.0000    0.0000 N   0  0  0  0  0  0  0  0  0  0  0  0
    0.0000    0.0000    0.0000 C   0  0  0  0  0  0  0  0  0  0  0  0
    0.0000    0.0000    0.0000 C   0  0  0  0  0  0  0  0  0  0  0  0
    0.0000    0.0000    0.0000 N   0  0  0  0  0  0  0  0  0  0  0  0
    0.0000    0.0000    0.0000 C   0  0  0  0  0  0  0  0  0  0  0  0
    0.0000    0.0000    0.0000 C   0  0  0  0  0  0  0  0  0  0  0  0
    0.0000    0.0000    0.0000 C   0  0  0  0  0  0  0  0  0  0  0  0
    0.0000    0.0000    0.0000 C   0  0  0  0  0  0  0  0  0  0  0  0
    0.0000    0.0000    0.0000 C   0  0  0  0  0  0  0  0  0  0  0  0
    0.0000    0.0000    0.0000 C   0  0  0  0  0  0  0  0  0  0  0  0
    0.0000    0.0000    0.0000 C   0  0  0  0  0  0  0  0  0  0  0  0
    0.0000    0.0000    0.0000 C   0  0  0  0  0  0  0  0  0  0  0  0
    0.0000    0.0000    0.0000 C   0  0  0  0  0  0  0  0  0  0  0  0
    0.0000    0.0000    0.0000 C   0  0  0  0  0  0  0  0  0  0  0  0
    0.0000    0.0000    0.0000 O   0  0  0  0  0  0  0  0  0  0  0  0
    0.0000    0.0000    0.0000 C   0  0  0  0  0  0  0  0  0  0  0  0
    0.0000    0.0000    0.0000 C   0  0  0  0  0  0  0  0  0  0  0  0
    0.0000    0.0000    0.0000 C   0  0  0  0  0  0  0  0  0  0  0  0
    0.0000    0.0000    0.0000 C   0  0  0  0  0  0  0  0  0  0  0  0
    0.0000    0.0000    0.0000 C   0  0  0  0  0  0  0  0  0  0  0  0
    0.0000    0.0000    0.0000 C   0  0  0  0  0  0  0  0  0  0  0  0
    0.0000    0.0000    0.0000 C   0  0  0  0  0  0  0  0  0  0  0  0
  1  2  1  0
  2  3  1  0
  3  4  1  0
  4  5  1  0
  5  6  1  0
  6  7  1  0
  7  8  1  0
  8  9  1  0
  9 10  1  0
 10 11  1  0
 11 12  1  0
 11 13  1  0
 13 14  2  0
 14 15  1  0
 15 16  2  0
 16 17  1  0
 17 18  1  0
 17 19  2  0
  6 20  1  0
 20 21  2  0
 21 22  1  0
 22 23  2  0
 23 24  1  0
 24 25  2  0
 11  2  1  0
  9  4  1  0
 19 13  1  0
 25 20  1  0
M  END
>  <pIC50>  (383) 
8.44

>  <ChEMBL_ID>  (383) 
CHEMBL219319

>  <document_journal>  (383) 
J. Med. Chem.

>  <bao_endpoint>  (383) 
BAO_0000190

>  <potential_duplicate>  (383) 
False

>  <uo_units>  (383) 
UO_0000065

>  <canonical_smiles>  (383) 
C[C@H]1CN2C[C@@H](NC[C@H]2C[C@@]1(C)c3cccc(O)c3)c4ccccc4

>  <parent_molecule_chembl_id>  (383) 
CHEMBL219319

>  <assay_type>  (383) 
F

>  <src_id>  (383) 
1

>  <ligand_efficiency>  (383) 
None

>  <standard_flag>  (383) 
True

>  <molecule_chembl_id>  (383) 
CHEMBL219319

>  <target_organism>  (383) 
Homo sapiens

>  <standard_units>  (383) 
nM

>  <record_id>  (383) 
619638

>  <document_chembl_id>  (383) 
CHEMBL1137297

>  <bao_format>  (383) 
BAO_0000219

>  <data_validity_description>  (383) 
None

>  <activity_id>  (383) 
1795499

>  <standard_type>  (383) 
IC50

>  <target_chembl_id>  (383) 
CHEMBL233

>  <data_validity_comment>  (383) 
None

>  <published_value>  (383) 
1.1

>  <document_year>  (383) 
2006

>  <target_pref_name>  (383) 
Mu opioid receptor

>  <assay_chembl_id>  (383) 
CHEMBL909298

>  <standard_relation>  (383) 
=

>  <assay_description>  (383) 
Antagonist activity assessed as inhibition of loperamide-stimulated [35S]GTPgammaS binding to human mu opioid receptor expressed in CHO cells

>  <published_relation>  (383) 
=

>  <standard_value>  (383) 
1.1

>  <qudt_units>  (383) 
http://www.openphacts.org/units/Nanomolar

>  <target_tax_id>  (383) 
9606

>  <bao_label>  (383) 
cell-based format

>  <published_units>  (383) 
nM

>  <pchembl_value>  (383) 
8.96

>  <published_type>  (383) 
IC50

>  <activity_comment>  (383) 
None

$$$$

     RDKit          

 25 28  0  0  0  0  0  0  0  0999 V2000
    0.0000    0.0000    0.0000 C   0  0  0  0  0  0  0  0  0  0  0  0
    0.0000    0.0000    0.0000 C   0  0  0  0  0  0  0  0  0  0  0  0
    0.0000    0.0000    0.0000 C   0  0  0  0  0  0  0  0  0  0  0  0
    0.0000    0.0000    0.0000 N   0  0  0  0  0  0  0  0  0  0  0  0
    0.0000    0.0000    0.0000 C   0  0  0  0  0  0  0  0  0  0  0  0
    0.0000    0.0000    0.0000 C   0  0  0  0  0  0  0  0  0  0  0  0
    0.0000    0.0000    0.0000 C   0  0  0  0  0  0  0  0  0  0  0  0
    0.0000    0.0000    0.0000 C   0  0  0  0  0  0  0  0  0  0  0  0
    0.0000    0.0000    0.0000 C   0  0  0  0  0  0  0  0  0  0  0  0
    0.0000    0.0000    0.0000 C   0  0  0  0  0  0  0  0  0  0  0  0
    0.0000    0.0000    0.0000 C   0  0  0  0  0  0  0  0  0  0  0  0
    0.0000    0.0000    0.0000 C   0  0  0  0  0  0  0  0  0  0  0  0
    0.0000    0.0000    0.0000 C   0  0  0  0  0  0  0  0  0  0  0  0
    0.0000    0.0000    0.0000 C   0  0  0  0  0  0  0  0  0  0  0  0
    0.0000    0.0000    0.0000 C   0  0  0  0  0  0  0  0  0  0  0  0
    0.0000    0.0000    0.0000 C   0  0  0  0  0  0  0  0  0  0  0  0
    0.0000    0.0000    0.0000 C   0  0  0  0  0  0  0  0  0  0  0  0
    0.0000    0.0000    0.0000 O   0  0  0  0  0  0  0  0  0  0  0  0
    0.0000    0.0000    0.0000 C   0  0  0  0  0  0  0  0  0  0  0  0
    0.0000    0.0000    0.0000 C   0  0  0  0  0  0  0  0  0  0  0  0
    0.0000    0.0000    0.0000 C   0  0  0  0  0  0  0  0  0  0  0  0
    0.0000    0.0000    0.0000 C   0  0  0  0  0  0  0  0  0  0  0  0
    0.0000    0.0000    0.0000 C   0  0  0  0  0  0  0  0  0  0  0  0
    0.0000    0.0000    0.0000 C   0  0  0  0  0  0  0  0  0  0  0  0
    0.0000    0.0000    0.0000 C   0  0  0  0  0  0  0  0  0  0  0  0
  1  2  1  0
  2  3  1  0
  3  4  1  0
  4  5  1  0
  5  6  1  0
  6  7  1  0
  7  8  1  0
  8  9  1  0
  9 10  1  0
 10 11  1  0
 11 12  1  0
 11 13  1  0
 13 14  2  0
 14 15  1  0
 15 16  2  0
 16 17  1  0
 17 18  1  0
 17 19  2  0
  6 20  1  0
 20 21  2  0
 21 22  1  0
 22 23  2  0
 23 24  1  0
 24 25  2  0
 11  2  1  0
  9  4  1  0
 19 13  1  0
 25 20  1  0
M  END
>  <pIC50>  (384) 
9.27333333333

>  <ChEMBL_ID>  (384) 
CHEMBL426523

>  <document_journal>  (384) 
J. Med. Chem.

>  <bao_endpoint>  (384) 
BAO_0000190

>  <potential_duplicate>  (384) 
True

>  <uo_units>  (384) 
UO_0000065

>  <canonical_smiles>  (384) 
C[C@H]1CN2C[C@@H](CC[C@H]2C[C@@]1(C)c3cccc(O)c3)c4ccccc4

>  <parent_molecule_chembl_id>  (384) 
CHEMBL426523

>  <assay_type>  (384) 
F

>  <src_id>  (384) 
1

>  <ligand_efficiency>  (384) 
None

>  <standard_flag>  (384) 
True

>  <molecule_chembl_id>  (384) 
CHEMBL426523

>  <target_organism>  (384) 
Homo sapiens

>  <standard_units>  (384) 
nM

>  <record_id>  (384) 
619637

>  <document_chembl_id>  (384) 
CHEMBL1137297

>  <bao_format>  (384) 
BAO_0000219

>  <data_validity_description>  (384) 
None

>  <activity_id>  (384) 
1795500

>  <standard_type>  (384) 
IC50

>  <target_chembl_id>  (384) 
CHEMBL233

>  <data_validity_comment>  (384) 
None

>  <published_value>  (384) 
0.54

>  <document_year>  (384) 
2006

>  <target_pref_name>  (384) 
Mu opioid receptor

>  <assay_chembl_id>  (384) 
CHEMBL909298

>  <standard_relation>  (384) 
=

>  <assay_description>  (384) 
Antagonist activity assessed as inhibition of loperamide-stimulated [35S]GTPgammaS binding to human mu opioid receptor expressed in CHO cells

>  <published_relation>  (384) 
=

>  <standard_value>  (384) 
0.54

>  <qudt_units>  (384) 
http://www.openphacts.org/units/Nanomolar

>  <target_tax_id>  (384) 
9606

>  <bao_label>  (384) 
cell-based format

>  <published_units>  (384) 
nM

>  <pchembl_value>  (384) 
9.27

>  <published_type>  (384) 
IC50

>  <activity_comment>  (384) 
None

$$$$

     RDKit          

 22 24  0  0  0  0  0  0  0  0999 V2000
    0.0000    0.0000    0.0000 C   0  0  0  0  0  0  0  0  0  0  0  0
    0.0000    0.0000    0.0000 C   0  0  0  0  0  0  0  0  0  0  0  0
    0.0000    0.0000    0.0000 C   0  0  0  0  0  0  0  0  0  0  0  0
    0.0000    0.0000    0.0000 C   0  0  0  0  0  0  0  0  0  0  0  0
    0.0000    0.0000    0.0000 C   0  0  0  0  0  0  0  0  0  0  0  0
    0.0000    0.0000    0.0000 N   0  0  0  0  0  0  0  0  0  0  0  0
    0.0000    0.0000    0.0000 C   0  0  0  0  0  0  0  0  0  0  0  0
    0.0000    0.0000    0.0000 C   0  0  0  0  0  0  0  0  0  0  0  0
    0.0000    0.0000    0.0000 C   0  0  0  0  0  0  0  0  0  0  0  0
    0.0000    0.0000    0.0000 C   0  0  0  0  0  0  0  0  0  0  0  0
    0.0000    0.0000    0.0000 C   0  0  0  0  0  0  0  0  0  0  0  0
    0.0000    0.0000    0.0000 C   0  0  0  0  0  0  0  0  0  0  0  0
    0.0000    0.0000    0.0000 C   0  0  0  0  0  0  0  0  0  0  0  0
    0.0000    0.0000    0.0000 C   0  0  0  0  0  0  0  0  0  0  0  0
    0.0000    0.0000    0.0000 N   0  0  0  0  0  0  0  0  0  0  0  0
    0.0000    0.0000    0.0000 C   0  0  0  0  0  0  0  0  0  0  0  0
    0.0000    0.0000    0.0000 C   0  0  0  0  0  0  0  0  0  0  0  0
    0.0000    0.0000    0.0000 C   0  0  0  0  0  0  0  0  0  0  0  0
    0.0000    0.0000    0.0000 C   0  0  0  0  0  0  0  0  0  0  0  0
    0.0000    0.0000    0.0000 C   0  0  0  0  0  0  0  0  0  0  0  0
    0.0000    0.0000    0.0000 O   0  0  0  0  0  0  0  0  0  0  0  0
    0.0000    0.0000    0.0000 C   0  0  0  0  0  0  0  0  0  0  0  0
  1  2  1  0
  2  3  1  0
  2  4  1  0
  4  5  1  0
  5  6  1  0
  6  7  1  0
  7  8  1  0
  8  9  1  0
  8 10  1  0
 10 11  1  0
 10 12  1  0
 12 13  1  0
 13 14  1  0
 14 15  1  0
 10 16  1  0
 16 17  2  0
 17 18  1  0
 18 19  2  0
 19 20  1  0
 20 21  1  0
 20 22  2  0
 15  4  1  0
 13  6  1  0
 22 16  1  0
M  END
>  <pIC50>  (385) 
7.18

>  <ChEMBL_ID>  (385) 
CHEMBL219097

>  <document_journal>  (385) 
J. Med. Chem.

>  <bao_endpoint>  (385) 
BAO_0000190

>  <potential_duplicate>  (385) 
False

>  <uo_units>  (385) 
UO_0000065

>  <canonical_smiles>  (385) 
CC(C)[C@H]1CN2C[C@H](C)[C@@](C)(C[C@@H]2CN1)c3cccc(O)c3

>  <parent_molecule_chembl_id>  (385) 
CHEMBL219097

>  <assay_type>  (385) 
F

>  <src_id>  (385) 
1

>  <ligand_efficiency>  (385) 
None

>  <standard_flag>  (385) 
True

>  <molecule_chembl_id>  (385) 
CHEMBL219097

>  <target_organism>  (385) 
Homo sapiens

>  <standard_units>  (385) 
nM

>  <record_id>  (385) 
619652

>  <document_chembl_id>  (385) 
CHEMBL1137297

>  <bao_format>  (385) 
BAO_0000219

>  <data_validity_description>  (385) 
None

>  <activity_id>  (385) 
1795531

>  <standard_type>  (385) 
IC50

>  <target_chembl_id>  (385) 
CHEMBL233

>  <data_validity_comment>  (385) 
None

>  <published_value>  (385) 
66

>  <document_year>  (385) 
2006

>  <target_pref_name>  (385) 
Mu opioid receptor

>  <assay_chembl_id>  (385) 
CHEMBL909298

>  <standard_relation>  (385) 
=

>  <assay_description>  (385) 
Antagonist activity assessed as inhibition of loperamide-stimulated [35S]GTPgammaS binding to human mu opioid receptor expressed in CHO cells

>  <published_relation>  (385) 
=

>  <standard_value>  (385) 
66

>  <qudt_units>  (385) 
http://www.openphacts.org/units/Nanomolar

>  <target_tax_id>  (385) 
9606

>  <bao_label>  (385) 
cell-based format

>  <published_units>  (385) 
nM

>  <pchembl_value>  (385) 
7.18

>  <published_type>  (385) 
IC50

>  <activity_comment>  (385) 
None

$$$$

     RDKit          

 25 28  0  0  0  0  0  0  0  0999 V2000
    0.0000    0.0000    0.0000 C   0  0  0  0  0  0  0  0  0  0  0  0
    0.0000    0.0000    0.0000 C   0  0  0  0  0  0  0  0  0  0  0  0
    0.0000    0.0000    0.0000 C   0  0  0  0  0  0  0  0  0  0  0  0
    0.0000    0.0000    0.0000 N   0  0  0  0  0  0  0  0  0  0  0  0
    0.0000    0.0000    0.0000 C   0  0  0  0  0  0  0  0  0  0  0  0
    0.0000    0.0000    0.0000 C   0  0  0  0  0  0  0  0  0  0  0  0
    0.0000    0.0000    0.0000 N   0  0  0  0  0  0  0  0  0  0  0  0
    0.0000    0.0000    0.0000 C   0  0  0  0  0  0  0  0  0  0  0  0
    0.0000    0.0000    0.0000 C   0  0  0  0  0  0  0  0  0  0  0  0
    0.0000    0.0000    0.0000 C   0  0  0  0  0  0  0  0  0  0  0  0
    0.0000    0.0000    0.0000 C   0  0  0  0  0  0  0  0  0  0  0  0
    0.0000    0.0000    0.0000 C   0  0  0  0  0  0  0  0  0  0  0  0
    0.0000    0.0000    0.0000 C   0  0  0  0  0  0  0  0  0  0  0  0
    0.0000    0.0000    0.0000 C   0  0  0  0  0  0  0  0  0  0  0  0
    0.0000    0.0000    0.0000 C   0  0  0  0  0  0  0  0  0  0  0  0
    0.0000    0.0000    0.0000 C   0  0  0  0  0  0  0  0  0  0  0  0
    0.0000    0.0000    0.0000 C   0  0  0  0  0  0  0  0  0  0  0  0
    0.0000    0.0000    0.0000 O   0  0  0  0  0  0  0  0  0  0  0  0
    0.0000    0.0000    0.0000 C   0  0  0  0  0  0  0  0  0  0  0  0
    0.0000    0.0000    0.0000 C   0  0  0  0  0  0  0  0  0  0  0  0
    0.0000    0.0000    0.0000 C   0  0  0  0  0  0  0  0  0  0  0  0
    0.0000    0.0000    0.0000 C   0  0  0  0  0  0  0  0  0  0  0  0
    0.0000    0.0000    0.0000 C   0  0  0  0  0  0  0  0  0  0  0  0
    0.0000    0.0000    0.0000 C   0  0  0  0  0  0  0  0  0  0  0  0
    0.0000    0.0000    0.0000 C   0  0  0  0  0  0  0  0  0  0  0  0
  1  2  1  0
  2  3  1  0
  3  4  1  0
  4  5  1  0
  5  6  1  0
  6  7  1  0
  7  8  1  0
  8  9  1  0
  9 10  1  0
 10 11  1  0
 11 12  1  0
 11 13  1  0
 13 14  2  0
 14 15  1  0
 15 16  2  0
 16 17  1  0
 17 18  1  0
 17 19  2  0
  6 20  1  0
 20 21  1  0
 21 22  1  0
 22 23  1  0
 23 24  1  0
 24 25  1  0
 11  2  1  0
  9  4  1  0
 19 13  1  0
 25 20  1  0
M  END
>  <pIC50>  (386) 
8.89

>  <ChEMBL_ID>  (386) 
CHEMBL375119

>  <document_journal>  (386) 
J. Med. Chem.

>  <bao_endpoint>  (386) 
BAO_0000190

>  <potential_duplicate>  (386) 
False

>  <uo_units>  (386) 
UO_0000065

>  <canonical_smiles>  (386) 
C[C@H]1CN2C[C@@H](NC[C@H]2C[C@@]1(C)c3cccc(O)c3)C4CCCCC4

>  <parent_molecule_chembl_id>  (386) 
CHEMBL375119

>  <assay_type>  (386) 
F

>  <src_id>  (386) 
1

>  <ligand_efficiency>  (386) 
None

>  <standard_flag>  (386) 
True

>  <molecule_chembl_id>  (386) 
CHEMBL375119

>  <target_organism>  (386) 
Homo sapiens

>  <standard_units>  (386) 
nM

>  <record_id>  (386) 
619651

>  <document_chembl_id>  (386) 
CHEMBL1137297

>  <bao_format>  (386) 
BAO_0000219

>  <data_validity_description>  (386) 
None

>  <activity_id>  (386) 
1795532

>  <standard_type>  (386) 
IC50

>  <target_chembl_id>  (386) 
CHEMBL233

>  <data_validity_comment>  (386) 
None

>  <published_value>  (386) 
1.3

>  <document_year>  (386) 
2006

>  <target_pref_name>  (386) 
Mu opioid receptor

>  <assay_chembl_id>  (386) 
CHEMBL909298

>  <standard_relation>  (386) 
=

>  <assay_description>  (386) 
Antagonist activity assessed as inhibition of loperamide-stimulated [35S]GTPgammaS binding to human mu opioid receptor expressed in CHO cells

>  <published_relation>  (386) 
=

>  <standard_value>  (386) 
1.3

>  <qudt_units>  (386) 
http://www.openphacts.org/units/Nanomolar

>  <target_tax_id>  (386) 
9606

>  <bao_label>  (386) 
cell-based format

>  <published_units>  (386) 
nM

>  <pchembl_value>  (386) 
8.89

>  <published_type>  (386) 
IC50

>  <activity_comment>  (386) 
None

$$$$

     RDKit          

 26 29  0  0  0  0  0  0  0  0999 V2000
    0.0000    0.0000    0.0000 C   0  0  0  0  0  0  0  0  0  0  0  0
    0.0000    0.0000    0.0000 C   0  0  0  0  0  0  0  0  0  0  0  0
    0.0000    0.0000    0.0000 C   0  0  0  0  0  0  0  0  0  0  0  0
    0.0000    0.0000    0.0000 N   0  0  0  0  0  0  0  0  0  0  0  0
    0.0000    0.0000    0.0000 C   0  0  0  0  0  0  0  0  0  0  0  0
    0.0000    0.0000    0.0000 C   0  0  0  0  0  0  0  0  0  0  0  0
    0.0000    0.0000    0.0000 C   0  0  0  0  0  0  0  0  0  0  0  0
    0.0000    0.0000    0.0000 C   0  0  0  0  0  0  0  0  0  0  0  0
    0.0000    0.0000    0.0000 C   0  0  0  0  0  0  0  0  0  0  0  0
    0.0000    0.0000    0.0000 C   0  0  0  0  0  0  0  0  0  0  0  0
    0.0000    0.0000    0.0000 C   0  0  0  0  0  0  0  0  0  0  0  0
    0.0000    0.0000    0.0000 C   0  0  0  0  0  0  0  0  0  0  0  0
    0.0000    0.0000    0.0000 C   0  0  0  0  0  0  0  0  0  0  0  0
    0.0000    0.0000    0.0000 N   0  0  0  0  0  0  0  0  0  0  0  0
    0.0000    0.0000    0.0000 C   0  0  0  0  0  0  0  0  0  0  0  0
    0.0000    0.0000    0.0000 C   0  0  0  0  0  0  0  0  0  0  0  0
    0.0000    0.0000    0.0000 C   0  0  0  0  0  0  0  0  0  0  0  0
    0.0000    0.0000    0.0000 C   0  0  0  0  0  0  0  0  0  0  0  0
    0.0000    0.0000    0.0000 C   0  0  0  0  0  0  0  0  0  0  0  0
    0.0000    0.0000    0.0000 C   0  0  0  0  0  0  0  0  0  0  0  0
    0.0000    0.0000    0.0000 C   0  0  0  0  0  0  0  0  0  0  0  0
    0.0000    0.0000    0.0000 C   0  0  0  0  0  0  0  0  0  0  0  0
    0.0000    0.0000    0.0000 C   0  0  0  0  0  0  0  0  0  0  0  0
    0.0000    0.0000    0.0000 C   0  0  0  0  0  0  0  0  0  0  0  0
    0.0000    0.0000    0.0000 O   0  0  0  0  0  0  0  0  0  0  0  0
    0.0000    0.0000    0.0000 C   0  0  0  0  0  0  0  0  0  0  0  0
  1  2  1  0
  2  3  1  0
  3  4  1  0
  4  5  1  0
  5  6  1  0
  6  7  1  0
  7  8  1  0
  8  9  2  0
  9 10  1  0
 10 11  2  0
 11 12  1  0
 12 13  2  0
  6 14  1  0
 14 15  1  0
 15 16  1  0
 16 17  1  0
 17 18  1  0
 18 19  1  0
 18 20  1  0
 20 21  2  0
 21 22  1  0
 22 23  2  0
 23 24  1  0
 24 25  1  0
 24 26  2  0
 18  2  1  0
 16  4  1  0
 13  8  1  0
 26 20  1  0
M  END
>  <pIC50>  (387) 
7.66

>  <ChEMBL_ID>  (387) 
CHEMBL218980

>  <document_journal>  (387) 
J. Med. Chem.

>  <bao_endpoint>  (387) 
BAO_0000190

>  <potential_duplicate>  (387) 
False

>  <uo_units>  (387) 
UO_0000065

>  <canonical_smiles>  (387) 
C[C@H]1CN2C[C@@H](Cc3ccccc3)NC[C@H]2C[C@@]1(C)c4cccc(O)c4

>  <parent_molecule_chembl_id>  (387) 
CHEMBL218980

>  <assay_type>  (387) 
F

>  <src_id>  (387) 
1

>  <ligand_efficiency>  (387) 
None

>  <standard_flag>  (387) 
True

>  <molecule_chembl_id>  (387) 
CHEMBL218980

>  <target_organism>  (387) 
Homo sapiens

>  <standard_units>  (387) 
nM

>  <record_id>  (387) 
619650

>  <document_chembl_id>  (387) 
CHEMBL1137297

>  <bao_format>  (387) 
BAO_0000219

>  <data_validity_description>  (387) 
None

>  <activity_id>  (387) 
1795533

>  <standard_type>  (387) 
IC50

>  <target_chembl_id>  (387) 
CHEMBL233

>  <data_validity_comment>  (387) 
None

>  <published_value>  (387) 
22

>  <document_year>  (387) 
2006

>  <target_pref_name>  (387) 
Mu opioid receptor

>  <assay_chembl_id>  (387) 
CHEMBL909298

>  <standard_relation>  (387) 
=

>  <assay_description>  (387) 
Antagonist activity assessed as inhibition of loperamide-stimulated [35S]GTPgammaS binding to human mu opioid receptor expressed in CHO cells

>  <published_relation>  (387) 
=

>  <standard_value>  (387) 
22

>  <qudt_units>  (387) 
http://www.openphacts.org/units/Nanomolar

>  <target_tax_id>  (387) 
9606

>  <bao_label>  (387) 
cell-based format

>  <published_units>  (387) 
nM

>  <pchembl_value>  (387) 
7.66

>  <published_type>  (387) 
IC50

>  <activity_comment>  (387) 
None

$$$$

     RDKit          

 26 29  0  0  0  0  0  0  0  0999 V2000
    0.0000    0.0000    0.0000 C   0  0  0  0  0  0  0  0  0  0  0  0
    0.0000    0.0000    0.0000 C   0  0  0  0  0  0  0  0  0  0  0  0
    0.0000    0.0000    0.0000 C   0  0  0  0  0  0  0  0  0  0  0  0
    0.0000    0.0000    0.0000 N   0  0  0  0  0  0  0  0  0  0  0  0
    0.0000    0.0000    0.0000 C   0  0  0  0  0  0  0  0  0  0  0  0
    0.0000    0.0000    0.0000 C   0  0  0  0  0  0  0  0  0  0  0  0
    0.0000    0.0000    0.0000 C   0  0  0  0  0  0  0  0  0  0  0  0
    0.0000    0.0000    0.0000 C   0  0  0  0  0  0  0  0  0  0  0  0
    0.0000    0.0000    0.0000 C   0  0  0  0  0  0  0  0  0  0  0  0
    0.0000    0.0000    0.0000 C   0  0  0  0  0  0  0  0  0  0  0  0
    0.0000    0.0000    0.0000 C   0  0  0  0  0  0  0  0  0  0  0  0
    0.0000    0.0000    0.0000 C   0  0  0  0  0  0  0  0  0  0  0  0
    0.0000    0.0000    0.0000 C   0  0  0  0  0  0  0  0  0  0  0  0
    0.0000    0.0000    0.0000 N   0  0  0  0  0  0  0  0  0  0  0  0
    0.0000    0.0000    0.0000 C   0  0  0  0  0  0  0  0  0  0  0  0
    0.0000    0.0000    0.0000 C   0  0  0  0  0  0  0  0  0  0  0  0
    0.0000    0.0000    0.0000 C   0  0  0  0  0  0  0  0  0  0  0  0
    0.0000    0.0000    0.0000 C   0  0  0  0  0  0  0  0  0  0  0  0
    0.0000    0.0000    0.0000 C   0  0  0  0  0  0  0  0  0  0  0  0
    0.0000    0.0000    0.0000 C   0  0  0  0  0  0  0  0  0  0  0  0
    0.0000    0.0000    0.0000 C   0  0  0  0  0  0  0  0  0  0  0  0
    0.0000    0.0000    0.0000 C   0  0  0  0  0  0  0  0  0  0  0  0
    0.0000    0.0000    0.0000 C   0  0  0  0  0  0  0  0  0  0  0  0
    0.0000    0.0000    0.0000 C   0  0  0  0  0  0  0  0  0  0  0  0
    0.0000    0.0000    0.0000 O   0  0  0  0  0  0  0  0  0  0  0  0
    0.0000    0.0000    0.0000 C   0  0  0  0  0  0  0  0  0  0  0  0
  1  2  1  0
  2  3  1  0
  3  4  1  0
  4  5  1  0
  5  6  1  0
  6  7  1  0
  7  8  1  0
  8  9  2  0
  9 10  1  0
 10 11  2  0
 11 12  1  0
 12 13  2  0
  6 14  1  0
 14 15  1  0
 15 16  1  0
 16 17  1  0
 17 18  1  0
 18 19  1  0
 18 20  1  0
 20 21  2  0
 21 22  1  0
 22 23  2  0
 23 24  1  0
 24 25  1  0
 24 26  2  0
 18  2  1  0
 16  4  1  0
 13  8  1  0
 26 20  1  0
M  END
>  <pIC50>  (388) 
8.045

>  <ChEMBL_ID>  (388) 
CHEMBL435746

>  <document_journal>  (388) 
J. Med. Chem.

>  <bao_endpoint>  (388) 
BAO_0000190

>  <potential_duplicate>  (388) 
False

>  <uo_units>  (388) 
UO_0000065

>  <canonical_smiles>  (388) 
C[C@H]1CN2C[C@H](Cc3ccccc3)NC[C@H]2C[C@@]1(C)c4cccc(O)c4

>  <parent_molecule_chembl_id>  (388) 
CHEMBL435746

>  <assay_type>  (388) 
F

>  <src_id>  (388) 
1

>  <ligand_efficiency>  (388) 
None

>  <standard_flag>  (388) 
True

>  <molecule_chembl_id>  (388) 
CHEMBL435746

>  <target_organism>  (388) 
Homo sapiens

>  <standard_units>  (388) 
nM

>  <record_id>  (388) 
619649

>  <document_chembl_id>  (388) 
CHEMBL1137297

>  <bao_format>  (388) 
BAO_0000219

>  <data_validity_description>  (388) 
None

>  <activity_id>  (388) 
1795534

>  <standard_type>  (388) 
IC50

>  <target_chembl_id>  (388) 
CHEMBL233

>  <data_validity_comment>  (388) 
None

>  <published_value>  (388) 
2.8

>  <document_year>  (388) 
2006

>  <target_pref_name>  (388) 
Mu opioid receptor

>  <assay_chembl_id>  (388) 
CHEMBL909298

>  <standard_relation>  (388) 
=

>  <assay_description>  (388) 
Antagonist activity assessed as inhibition of loperamide-stimulated [35S]GTPgammaS binding to human mu opioid receptor expressed in CHO cells

>  <published_relation>  (388) 
=

>  <standard_value>  (388) 
2.8

>  <qudt_units>  (388) 
http://www.openphacts.org/units/Nanomolar

>  <target_tax_id>  (388) 
9606

>  <bao_label>  (388) 
cell-based format

>  <published_units>  (388) 
nM

>  <pchembl_value>  (388) 
8.55

>  <published_type>  (388) 
IC50

>  <activity_comment>  (388) 
None

$$$$

     RDKit          

 25 28  0  0  0  0  0  0  0  0999 V2000
    0.0000    0.0000    0.0000 C   0  0  0  0  0  0  0  0  0  0  0  0
    0.0000    0.0000    0.0000 C   0  0  0  0  0  0  0  0  0  0  0  0
    0.0000    0.0000    0.0000 C   0  0  0  0  0  0  0  0  0  0  0  0
    0.0000    0.0000    0.0000 N   0  0  0  0  0  0  0  0  0  0  0  0
    0.0000    0.0000    0.0000 C   0  0  0  0  0  0  0  0  0  0  0  0
    0.0000    0.0000    0.0000 C   0  0  0  0  0  0  0  0  0  0  0  0
    0.0000    0.0000    0.0000 N   0  0  0  0  0  0  0  0  0  0  0  0
    0.0000    0.0000    0.0000 C   0  0  0  0  0  0  0  0  0  0  0  0
    0.0000    0.0000    0.0000 C   0  0  0  0  0  0  0  0  0  0  0  0
    0.0000    0.0000    0.0000 C   0  0  0  0  0  0  0  0  0  0  0  0
    0.0000    0.0000    0.0000 C   0  0  0  0  0  0  0  0  0  0  0  0
    0.0000    0.0000    0.0000 C   0  0  0  0  0  0  0  0  0  0  0  0
    0.0000    0.0000    0.0000 C   0  0  0  0  0  0  0  0  0  0  0  0
    0.0000    0.0000    0.0000 C   0  0  0  0  0  0  0  0  0  0  0  0
    0.0000    0.0000    0.0000 C   0  0  0  0  0  0  0  0  0  0  0  0
    0.0000    0.0000    0.0000 C   0  0  0  0  0  0  0  0  0  0  0  0
    0.0000    0.0000    0.0000 C   0  0  0  0  0  0  0  0  0  0  0  0
    0.0000    0.0000    0.0000 O   0  0  0  0  0  0  0  0  0  0  0  0
    0.0000    0.0000    0.0000 C   0  0  0  0  0  0  0  0  0  0  0  0
    0.0000    0.0000    0.0000 C   0  0  0  0  0  0  0  0  0  0  0  0
    0.0000    0.0000    0.0000 C   0  0  0  0  0  0  0  0  0  0  0  0
    0.0000    0.0000    0.0000 C   0  0  0  0  0  0  0  0  0  0  0  0
    0.0000    0.0000    0.0000 C   0  0  0  0  0  0  0  0  0  0  0  0
    0.0000    0.0000    0.0000 C   0  0  0  0  0  0  0  0  0  0  0  0
    0.0000    0.0000    0.0000 C   0  0  0  0  0  0  0  0  0  0  0  0
  1  2  1  0
  2  3  1  0
  3  4  1  0
  4  5  1  0
  5  6  1  0
  6  7  1  0
  7  8  1  0
  8  9  1  0
  9 10  1  0
 10 11  1  0
 11 12  1  0
 11 13  1  0
 13 14  2  0
 14 15  1  0
 15 16  2  0
 16 17  1  0
 17 18  1  0
 17 19  2  0
  6 20  1  0
 20 21  2  0
 21 22  1  0
 22 23  2  0
 23 24  1  0
 24 25  2  0
 11  2  1  0
  9  4  1  0
 19 13  1  0
 25 20  1  0
M  END
>  <pIC50>  (389) 
7.28

>  <ChEMBL_ID>  (389) 
CHEMBL218506

>  <document_journal>  (389) 
J. Med. Chem.

>  <bao_endpoint>  (389) 
BAO_0000190

>  <potential_duplicate>  (389) 
False

>  <uo_units>  (389) 
UO_0000065

>  <canonical_smiles>  (389) 
C[C@H]1CN2C[C@H](NC[C@H]2C[C@@]1(C)c3cccc(O)c3)c4ccccc4

>  <parent_molecule_chembl_id>  (389) 
CHEMBL218506

>  <assay_type>  (389) 
F

>  <src_id>  (389) 
1

>  <ligand_efficiency>  (389) 
None

>  <standard_flag>  (389) 
True

>  <molecule_chembl_id>  (389) 
CHEMBL218506

>  <target_organism>  (389) 
Homo sapiens

>  <standard_units>  (389) 
nM

>  <record_id>  (389) 
619647

>  <document_chembl_id>  (389) 
CHEMBL1137297

>  <bao_format>  (389) 
BAO_0000219

>  <data_validity_description>  (389) 
None

>  <activity_id>  (389) 
1795535

>  <standard_type>  (389) 
IC50

>  <target_chembl_id>  (389) 
CHEMBL233

>  <data_validity_comment>  (389) 
None

>  <published_value>  (389) 
52

>  <document_year>  (389) 
2006

>  <target_pref_name>  (389) 
Mu opioid receptor

>  <assay_chembl_id>  (389) 
CHEMBL909298

>  <standard_relation>  (389) 
=

>  <assay_description>  (389) 
Antagonist activity assessed as inhibition of loperamide-stimulated [35S]GTPgammaS binding to human mu opioid receptor expressed in CHO cells

>  <published_relation>  (389) 
=

>  <standard_value>  (389) 
52

>  <qudt_units>  (389) 
http://www.openphacts.org/units/Nanomolar

>  <target_tax_id>  (389) 
9606

>  <bao_label>  (389) 
cell-based format

>  <published_units>  (389) 
nM

>  <pchembl_value>  (389) 
7.28

>  <published_type>  (389) 
IC50

>  <activity_comment>  (389) 
None

$$$$

     RDKit          

 27 30  0  0  0  0  0  0  0  0999 V2000
    0.0000    0.0000    0.0000 C   0  0  0  0  0  0  0  0  0  0  0  0
    0.0000    0.0000    0.0000 C   0  0  0  0  0  0  0  0  0  0  0  0
    0.0000    0.0000    0.0000 C   0  0  0  0  0  0  0  0  0  0  0  0
    0.0000    0.0000    0.0000 N   0  0  0  0  0  0  0  0  0  0  0  0
    0.0000    0.0000    0.0000 C   0  0  0  0  0  0  0  0  0  0  0  0
    0.0000    0.0000    0.0000 C   0  0  0  0  0  0  0  0  0  0  0  0
    0.0000    0.0000    0.0000 N   0  0  0  0  0  0  0  0  0  0  0  0
    0.0000    0.0000    0.0000 C   0  0  0  0  0  0  0  0  0  0  0  0
    0.0000    0.0000    0.0000 C   0  0  0  0  0  0  0  0  0  0  0  0
    0.0000    0.0000    0.0000 C   0  0  0  0  0  0  0  0  0  0  0  0
    0.0000    0.0000    0.0000 C   0  0  0  0  0  0  0  0  0  0  0  0
    0.0000    0.0000    0.0000 C   0  0  0  0  0  0  0  0  0  0  0  0
    0.0000    0.0000    0.0000 C   0  0  0  0  0  0  0  0  0  0  0  0
    0.0000    0.0000    0.0000 C   0  0  0  0  0  0  0  0  0  0  0  0
    0.0000    0.0000    0.0000 C   0  0  0  0  0  0  0  0  0  0  0  0
    0.0000    0.0000    0.0000 C   0  0  0  0  0  0  0  0  0  0  0  0
    0.0000    0.0000    0.0000 C   0  0  0  0  0  0  0  0  0  0  0  0
    0.0000    0.0000    0.0000 O   0  0  0  0  0  0  0  0  0  0  0  0
    0.0000    0.0000    0.0000 C   0  0  0  0  0  0  0  0  0  0  0  0
    0.0000    0.0000    0.0000 C   0  0  0  0  0  0  0  0  0  0  0  0
    0.0000    0.0000    0.0000 O   0  0  0  0  0  0  0  0  0  0  0  0
    0.0000    0.0000    0.0000 C   0  0  0  0  0  0  0  0  0  0  0  0
    0.0000    0.0000    0.0000 C   0  0  0  0  0  0  0  0  0  0  0  0
    0.0000    0.0000    0.0000 C   0  0  0  0  0  0  0  0  0  0  0  0
    0.0000    0.0000    0.0000 C   0  0  0  0  0  0  0  0  0  0  0  0
    0.0000    0.0000    0.0000 C   0  0  0  0  0  0  0  0  0  0  0  0
    0.0000    0.0000    0.0000 C   0  0  0  0  0  0  0  0  0  0  0  0
  1  2  1  0
  2  3  1  0
  3  4  1  0
  4  5  1  0
  5  6  1  0
  6  7  1  0
  7  8  1  0
  8  9  1  0
  9 10  1  0
 10 11  1  0
 11 12  1  0
 11 13  1  0
 13 14  2  0
 14 15  1  0
 15 16  2  0
 16 17  1  0
 17 18  1  0
 17 19  2  0
  7 20  1  0
 20 21  2  0
 20 22  1  0
 22 23  2  0
 23 24  1  0
 24 25  2  0
 25 26  1  0
 26 27  2  0
 11  2  1  0
  9  4  1  0
 19 13  1  0
 27 22  1  0
M  END
>  <pIC50>  (390) 
8.18

>  <ChEMBL_ID>  (390) 
CHEMBL218404

>  <document_journal>  (390) 
J. Med. Chem.

>  <bao_endpoint>  (390) 
BAO_0000190

>  <potential_duplicate>  (390) 
False

>  <uo_units>  (390) 
UO_0000065

>  <canonical_smiles>  (390) 
C[C@H]1CN2CCN(C[C@H]2C[C@@]1(C)c3cccc(O)c3)C(=O)c4ccccc4

>  <parent_molecule_chembl_id>  (390) 
CHEMBL218404

>  <assay_type>  (390) 
F

>  <src_id>  (390) 
1

>  <ligand_efficiency>  (390) 
None

>  <standard_flag>  (390) 
True

>  <molecule_chembl_id>  (390) 
CHEMBL218404

>  <target_organism>  (390) 
Homo sapiens

>  <standard_units>  (390) 
nM

>  <record_id>  (390) 
619655

>  <document_chembl_id>  (390) 
CHEMBL1137297

>  <bao_format>  (390) 
BAO_0000219

>  <data_validity_description>  (390) 
None

>  <activity_id>  (390) 
1795580

>  <standard_type>  (390) 
IC50

>  <target_chembl_id>  (390) 
CHEMBL233

>  <data_validity_comment>  (390) 
None

>  <published_value>  (390) 
2.1

>  <document_year>  (390) 
2006

>  <target_pref_name>  (390) 
Mu opioid receptor

>  <assay_chembl_id>  (390) 
CHEMBL909298

>  <standard_relation>  (390) 
=

>  <assay_description>  (390) 
Antagonist activity assessed as inhibition of loperamide-stimulated [35S]GTPgammaS binding to human mu opioid receptor expressed in CHO cells

>  <published_relation>  (390) 
=

>  <standard_value>  (390) 
2.1

>  <qudt_units>  (390) 
http://www.openphacts.org/units/Nanomolar

>  <target_tax_id>  (390) 
9606

>  <bao_label>  (390) 
cell-based format

>  <published_units>  (390) 
nM

>  <pchembl_value>  (390) 
8.68

>  <published_type>  (390) 
IC50

>  <activity_comment>  (390) 
None

$$$$

     RDKit          

 28 31  0  0  0  0  0  0  0  0999 V2000
    0.0000    0.0000    0.0000 C   0  0  0  0  0  0  0  0  0  0  0  0
    0.0000    0.0000    0.0000 C   0  0  0  0  0  0  0  0  0  0  0  0
    0.0000    0.0000    0.0000 C   0  0  0  0  0  0  0  0  0  0  0  0
    0.0000    0.0000    0.0000 N   0  0  0  0  0  0  0  0  0  0  0  0
    0.0000    0.0000    0.0000 C   0  0  0  0  0  0  0  0  0  0  0  0
    0.0000    0.0000    0.0000 C   0  0  0  0  0  0  0  0  0  0  0  0
    0.0000    0.0000    0.0000 N   0  0  0  0  0  0  0  0  0  0  0  0
    0.0000    0.0000    0.0000 C   0  0  0  0  0  0  0  0  0  0  0  0
    0.0000    0.0000    0.0000 C   0  0  0  0  0  0  0  0  0  0  0  0
    0.0000    0.0000    0.0000 C   0  0  0  0  0  0  0  0  0  0  0  0
    0.0000    0.0000    0.0000 C   0  0  0  0  0  0  0  0  0  0  0  0
    0.0000    0.0000    0.0000 C   0  0  0  0  0  0  0  0  0  0  0  0
    0.0000    0.0000    0.0000 C   0  0  0  0  0  0  0  0  0  0  0  0
    0.0000    0.0000    0.0000 C   0  0  0  0  0  0  0  0  0  0  0  0
    0.0000    0.0000    0.0000 C   0  0  0  0  0  0  0  0  0  0  0  0
    0.0000    0.0000    0.0000 C   0  0  0  0  0  0  0  0  0  0  0  0
    0.0000    0.0000    0.0000 C   0  0  0  0  0  0  0  0  0  0  0  0
    0.0000    0.0000    0.0000 O   0  0  0  0  0  0  0  0  0  0  0  0
    0.0000    0.0000    0.0000 C   0  0  0  0  0  0  0  0  0  0  0  0
    0.0000    0.0000    0.0000 C   0  0  0  0  0  0  0  0  0  0  0  0
    0.0000    0.0000    0.0000 O   0  0  0  0  0  0  0  0  0  0  0  0
    0.0000    0.0000    0.0000 N   0  0  0  0  0  0  0  0  0  0  0  0
    0.0000    0.0000    0.0000 C   0  0  0  0  0  0  0  0  0  0  0  0
    0.0000    0.0000    0.0000 C   0  0  0  0  0  0  0  0  0  0  0  0
    0.0000    0.0000    0.0000 C   0  0  0  0  0  0  0  0  0  0  0  0
    0.0000    0.0000    0.0000 C   0  0  0  0  0  0  0  0  0  0  0  0
    0.0000    0.0000    0.0000 C   0  0  0  0  0  0  0  0  0  0  0  0
    0.0000    0.0000    0.0000 C   0  0  0  0  0  0  0  0  0  0  0  0
  1  2  1  0
  2  3  1  0
  3  4  1  0
  4  5  1  0
  5  6  1  0
  6  7  1  0
  7  8  1  0
  8  9  1  0
  9 10  1  0
 10 11  1  0
 11 12  1  0
 11 13  1  0
 13 14  2  0
 14 15  1  0
 15 16  2  0
 16 17  1  0
 17 18  1  0
 17 19  2  0
  7 20  1  0
 20 21  2  0
 20 22  1  0
 22 23  1  0
 23 24  2  0
 24 25  1  0
 25 26  2  0
 26 27  1  0
 27 28  2  0
 11  2  1  0
  9  4  1  0
 19 13  1  0
 28 23  1  0
M  END
>  <pIC50>  (391) 
7.8

>  <ChEMBL_ID>  (391) 
CHEMBL219317

>  <document_journal>  (391) 
J. Med. Chem.

>  <bao_endpoint>  (391) 
BAO_0000190

>  <potential_duplicate>  (391) 
False

>  <uo_units>  (391) 
UO_0000065

>  <canonical_smiles>  (391) 
C[C@H]1CN2CCN(C[C@H]2C[C@@]1(C)c3cccc(O)c3)C(=O)Nc4ccccc4

>  <parent_molecule_chembl_id>  (391) 
CHEMBL219317

>  <assay_type>  (391) 
F

>  <src_id>  (391) 
1

>  <ligand_efficiency>  (391) 
None

>  <standard_flag>  (391) 
True

>  <molecule_chembl_id>  (391) 
CHEMBL219317

>  <target_organism>  (391) 
Homo sapiens

>  <standard_units>  (391) 
nM

>  <record_id>  (391) 
619665

>  <document_chembl_id>  (391) 
CHEMBL1137297

>  <bao_format>  (391) 
BAO_0000219

>  <data_validity_description>  (391) 
None

>  <activity_id>  (391) 
1795591

>  <standard_type>  (391) 
IC50

>  <target_chembl_id>  (391) 
CHEMBL233

>  <data_validity_comment>  (391) 
None

>  <published_value>  (391) 
16

>  <document_year>  (391) 
2006

>  <target_pref_name>  (391) 
Mu opioid receptor

>  <assay_chembl_id>  (391) 
CHEMBL909298

>  <standard_relation>  (391) 
=

>  <assay_description>  (391) 
Antagonist activity assessed as inhibition of loperamide-stimulated [35S]GTPgammaS binding to human mu opioid receptor expressed in CHO cells

>  <published_relation>  (391) 
=

>  <standard_value>  (391) 
16

>  <qudt_units>  (391) 
http://www.openphacts.org/units/Nanomolar

>  <target_tax_id>  (391) 
9606

>  <bao_label>  (391) 
cell-based format

>  <published_units>  (391) 
nM

>  <pchembl_value>  (391) 
7.8

>  <published_type>  (391) 
IC50

>  <activity_comment>  (391) 
None

$$$$

     RDKit          

 28 31  0  0  0  0  0  0  0  0999 V2000
    0.0000    0.0000    0.0000 C   0  0  0  0  0  0  0  0  0  0  0  0
    0.0000    0.0000    0.0000 C   0  0  0  0  0  0  0  0  0  0  0  0
    0.0000    0.0000    0.0000 C   0  0  0  0  0  0  0  0  0  0  0  0
    0.0000    0.0000    0.0000 N   0  0  0  0  0  0  0  0  0  0  0  0
    0.0000    0.0000    0.0000 C   0  0  0  0  0  0  0  0  0  0  0  0
    0.0000    0.0000    0.0000 C   0  0  0  0  0  0  0  0  0  0  0  0
    0.0000    0.0000    0.0000 N   0  0  0  0  0  0  0  0  0  0  0  0
    0.0000    0.0000    0.0000 C   0  0  0  0  0  0  0  0  0  0  0  0
    0.0000    0.0000    0.0000 C   0  0  0  0  0  0  0  0  0  0  0  0
    0.0000    0.0000    0.0000 C   0  0  0  0  0  0  0  0  0  0  0  0
    0.0000    0.0000    0.0000 C   0  0  0  0  0  0  0  0  0  0  0  0
    0.0000    0.0000    0.0000 C   0  0  0  0  0  0  0  0  0  0  0  0
    0.0000    0.0000    0.0000 C   0  0  0  0  0  0  0  0  0  0  0  0
    0.0000    0.0000    0.0000 C   0  0  0  0  0  0  0  0  0  0  0  0
    0.0000    0.0000    0.0000 C   0  0  0  0  0  0  0  0  0  0  0  0
    0.0000    0.0000    0.0000 C   0  0  0  0  0  0  0  0  0  0  0  0
    0.0000    0.0000    0.0000 C   0  0  0  0  0  0  0  0  0  0  0  0
    0.0000    0.0000    0.0000 O   0  0  0  0  0  0  0  0  0  0  0  0
    0.0000    0.0000    0.0000 C   0  0  0  0  0  0  0  0  0  0  0  0
    0.0000    0.0000    0.0000 S   0  0  0  0  0  0  0  0  0  0  0  0
    0.0000    0.0000    0.0000 O   0  0  0  0  0  0  0  0  0  0  0  0
    0.0000    0.0000    0.0000 O   0  0  0  0  0  0  0  0  0  0  0  0
    0.0000    0.0000    0.0000 C   0  0  0  0  0  0  0  0  0  0  0  0
    0.0000    0.0000    0.0000 C   0  0  0  0  0  0  0  0  0  0  0  0
    0.0000    0.0000    0.0000 C   0  0  0  0  0  0  0  0  0  0  0  0
    0.0000    0.0000    0.0000 C   0  0  0  0  0  0  0  0  0  0  0  0
    0.0000    0.0000    0.0000 C   0  0  0  0  0  0  0  0  0  0  0  0
    0.0000    0.0000    0.0000 C   0  0  0  0  0  0  0  0  0  0  0  0
  1  2  1  0
  2  3  1  0
  3  4  1  0
  4  5  1  0
  5  6  1  0
  6  7  1  0
  7  8  1  0
  8  9  1  0
  9 10  1  0
 10 11  1  0
 11 12  1  0
 11 13  1  0
 13 14  2  0
 14 15  1  0
 15 16  2  0
 16 17  1  0
 17 18  1  0
 17 19  2  0
  7 20  1  0
 20 21  2  0
 20 22  2  0
 20 23  1  0
 23 24  2  0
 24 25  1  0
 25 26  2  0
 26 27  1  0
 27 28  2  0
 11  2  1  0
  9  4  1  0
 19 13  1  0
 28 23  1  0
M  END
>  <pIC50>  (392) 
6.85

>  <ChEMBL_ID>  (392) 
CHEMBL374324

>  <document_journal>  (392) 
J. Med. Chem.

>  <bao_endpoint>  (392) 
BAO_0000190

>  <potential_duplicate>  (392) 
False

>  <uo_units>  (392) 
UO_0000065

>  <canonical_smiles>  (392) 
C[C@H]1CN2CCN(C[C@H]2C[C@@]1(C)c3cccc(O)c3)S(=O)(=O)c4ccccc4

>  <parent_molecule_chembl_id>  (392) 
CHEMBL374324

>  <assay_type>  (392) 
F

>  <src_id>  (392) 
1

>  <ligand_efficiency>  (392) 
None

>  <standard_flag>  (392) 
True

>  <molecule_chembl_id>  (392) 
CHEMBL374324

>  <target_organism>  (392) 
Homo sapiens

>  <standard_units>  (392) 
nM

>  <record_id>  (392) 
619664

>  <document_chembl_id>  (392) 
CHEMBL1137297

>  <bao_format>  (392) 
BAO_0000219

>  <data_validity_description>  (392) 
None

>  <activity_id>  (392) 
1795592

>  <standard_type>  (392) 
IC50

>  <target_chembl_id>  (392) 
CHEMBL233

>  <data_validity_comment>  (392) 
None

>  <published_value>  (392) 
140

>  <document_year>  (392) 
2006

>  <target_pref_name>  (392) 
Mu opioid receptor

>  <assay_chembl_id>  (392) 
CHEMBL909298

>  <standard_relation>  (392) 
=

>  <assay_description>  (392) 
Antagonist activity assessed as inhibition of loperamide-stimulated [35S]GTPgammaS binding to human mu opioid receptor expressed in CHO cells

>  <published_relation>  (392) 
=

>  <standard_value>  (392) 
140

>  <qudt_units>  (392) 
http://www.openphacts.org/units/Nanomolar

>  <target_tax_id>  (392) 
9606

>  <bao_label>  (392) 
cell-based format

>  <published_units>  (392) 
nM

>  <pchembl_value>  (392) 
6.85

>  <published_type>  (392) 
IC50

>  <activity_comment>  (392) 
None

$$$$

     RDKit          

 27 30  0  0  0  0  0  0  0  0999 V2000
    0.0000    0.0000    0.0000 C   0  0  0  0  0  0  0  0  0  0  0  0
    0.0000    0.0000    0.0000 C   0  0  0  0  0  0  0  0  0  0  0  0
    0.0000    0.0000    0.0000 C   0  0  0  0  0  0  0  0  0  0  0  0
    0.0000    0.0000    0.0000 N   0  0  0  0  0  0  0  0  0  0  0  0
    0.0000    0.0000    0.0000 C   0  0  0  0  0  0  0  0  0  0  0  0
    0.0000    0.0000    0.0000 C   0  0  0  0  0  0  0  0  0  0  0  0
    0.0000    0.0000    0.0000 C   0  0  0  0  0  0  0  0  0  0  0  0
    0.0000    0.0000    0.0000 N   0  0  0  0  0  0  0  0  0  0  0  0
    0.0000    0.0000    0.0000 C   0  0  0  0  0  0  0  0  0  0  0  0
    0.0000    0.0000    0.0000 C   0  0  0  0  0  0  0  0  0  0  0  0
    0.0000    0.0000    0.0000 C   0  0  0  0  0  0  0  0  0  0  0  0
    0.0000    0.0000    0.0000 C   0  0  0  0  0  0  0  0  0  0  0  0
    0.0000    0.0000    0.0000 C   0  0  0  0  0  0  0  0  0  0  0  0
    0.0000    0.0000    0.0000 C   0  0  0  0  0  0  0  0  0  0  0  0
    0.0000    0.0000    0.0000 C   0  0  0  0  0  0  0  0  0  0  0  0
    0.0000    0.0000    0.0000 C   0  0  0  0  0  0  0  0  0  0  0  0
    0.0000    0.0000    0.0000 C   0  0  0  0  0  0  0  0  0  0  0  0
    0.0000    0.0000    0.0000 C   0  0  0  0  0  0  0  0  0  0  0  0
    0.0000    0.0000    0.0000 C   0  0  0  0  0  0  0  0  0  0  0  0
    0.0000    0.0000    0.0000 C   0  0  0  0  0  0  0  0  0  0  0  0
    0.0000    0.0000    0.0000 C   0  0  0  0  0  0  0  0  0  0  0  0
    0.0000    0.0000    0.0000 C   0  0  0  0  0  0  0  0  0  0  0  0
    0.0000    0.0000    0.0000 C   0  0  0  0  0  0  0  0  0  0  0  0
    0.0000    0.0000    0.0000 C   0  0  0  0  0  0  0  0  0  0  0  0
    0.0000    0.0000    0.0000 C   0  0  0  0  0  0  0  0  0  0  0  0
    0.0000    0.0000    0.0000 O   0  0  0  0  0  0  0  0  0  0  0  0
    0.0000    0.0000    0.0000 C   0  0  0  0  0  0  0  0  0  0  0  0
  1  2  1  0
  2  3  1  0
  3  4  1  0
  4  5  1  0
  5  6  1  0
  6  7  1  0
  7  8  1  0
  8  9  1  0
  9 10  1  0
 10 11  2  0
 11 12  1  0
 12 13  2  0
 13 14  1  0
 14 15  2  0
  8 16  1  0
 16 17  1  0
 17 18  1  0
 18 19  1  0
 19 20  1  0
 19 21  1  0
 21 22  2  0
 22 23  1  0
 23 24  2  0
 24 25  1  0
 25 26  1  0
 25 27  2  0
 19  2  1  0
 17  4  1  0
 15 10  1  0
 27 21  1  0
M  END
>  <pIC50>  (393) 
7.82

>  <ChEMBL_ID>  (393) 
CHEMBL374678

>  <document_journal>  (393) 
J. Med. Chem.

>  <bao_endpoint>  (393) 
BAO_0000190

>  <potential_duplicate>  (393) 
False

>  <uo_units>  (393) 
UO_0000065

>  <canonical_smiles>  (393) 
C[C@H]1CN2CCCN(Cc3ccccc3)C[C@H]2C[C@@]1(C)c4cccc(O)c4

>  <parent_molecule_chembl_id>  (393) 
CHEMBL374678

>  <assay_type>  (393) 
F

>  <src_id>  (393) 
1

>  <ligand_efficiency>  (393) 
None

>  <standard_flag>  (393) 
True

>  <molecule_chembl_id>  (393) 
CHEMBL374678

>  <target_organism>  (393) 
Homo sapiens

>  <standard_units>  (393) 
nM

>  <record_id>  (393) 
619662

>  <document_chembl_id>  (393) 
CHEMBL1137297

>  <bao_format>  (393) 
BAO_0000219

>  <data_validity_description>  (393) 
None

>  <activity_id>  (393) 
1795593

>  <standard_type>  (393) 
IC50

>  <target_chembl_id>  (393) 
CHEMBL233

>  <data_validity_comment>  (393) 
None

>  <published_value>  (393) 
15

>  <document_year>  (393) 
2006

>  <target_pref_name>  (393) 
Mu opioid receptor

>  <assay_chembl_id>  (393) 
CHEMBL909298

>  <standard_relation>  (393) 
=

>  <assay_description>  (393) 
Antagonist activity assessed as inhibition of loperamide-stimulated [35S]GTPgammaS binding to human mu opioid receptor expressed in CHO cells

>  <published_relation>  (393) 
=

>  <standard_value>  (393) 
15

>  <qudt_units>  (393) 
http://www.openphacts.org/units/Nanomolar

>  <target_tax_id>  (393) 
9606

>  <bao_label>  (393) 
cell-based format

>  <published_units>  (393) 
nM

>  <pchembl_value>  (393) 
7.82

>  <published_type>  (393) 
IC50

>  <activity_comment>  (393) 
None

$$$$

     RDKit          

 28 31  0  0  0  0  0  0  0  0999 V2000
    0.0000    0.0000    0.0000 C   0  0  0  0  0  0  0  0  0  0  0  0
    0.0000    0.0000    0.0000 C   0  0  0  0  0  0  0  0  0  0  0  0
    0.0000    0.0000    0.0000 C   0  0  0  0  0  0  0  0  0  0  0  0
    0.0000    0.0000    0.0000 N   0  0  0  0  0  0  0  0  0  0  0  0
    0.0000    0.0000    0.0000 C   0  0  0  0  0  0  0  0  0  0  0  0
    0.0000    0.0000    0.0000 C   0  0  0  0  0  0  0  0  0  0  0  0
    0.0000    0.0000    0.0000 N   0  0  0  0  0  0  0  0  0  0  0  0
    0.0000    0.0000    0.0000 C   0  0  0  0  0  0  0  0  0  0  0  0
    0.0000    0.0000    0.0000 C   0  0  0  0  0  0  0  0  0  0  0  0
    0.0000    0.0000    0.0000 C   0  0  0  0  0  0  0  0  0  0  0  0
    0.0000    0.0000    0.0000 C   0  0  0  0  0  0  0  0  0  0  0  0
    0.0000    0.0000    0.0000 C   0  0  0  0  0  0  0  0  0  0  0  0
    0.0000    0.0000    0.0000 C   0  0  0  0  0  0  0  0  0  0  0  0
    0.0000    0.0000    0.0000 C   0  0  0  0  0  0  0  0  0  0  0  0
    0.0000    0.0000    0.0000 C   0  0  0  0  0  0  0  0  0  0  0  0
    0.0000    0.0000    0.0000 C   0  0  0  0  0  0  0  0  0  0  0  0
    0.0000    0.0000    0.0000 C   0  0  0  0  0  0  0  0  0  0  0  0
    0.0000    0.0000    0.0000 C   0  0  0  0  0  0  0  0  0  0  0  0
    0.0000    0.0000    0.0000 C   0  0  0  0  0  0  0  0  0  0  0  0
    0.0000    0.0000    0.0000 C   0  0  0  0  0  0  0  0  0  0  0  0
    0.0000    0.0000    0.0000 C   0  0  0  0  0  0  0  0  0  0  0  0
    0.0000    0.0000    0.0000 C   0  0  0  0  0  0  0  0  0  0  0  0
    0.0000    0.0000    0.0000 C   0  0  0  0  0  0  0  0  0  0  0  0
    0.0000    0.0000    0.0000 C   0  0  0  0  0  0  0  0  0  0  0  0
    0.0000    0.0000    0.0000 C   0  0  0  0  0  0  0  0  0  0  0  0
    0.0000    0.0000    0.0000 C   0  0  0  0  0  0  0  0  0  0  0  0
    0.0000    0.0000    0.0000 O   0  0  0  0  0  0  0  0  0  0  0  0
    0.0000    0.0000    0.0000 C   0  0  0  0  0  0  0  0  0  0  0  0
  1  2  1  0
  2  3  1  0
  3  4  1  0
  4  5  1  0
  5  6  1  0
  6  7  1  0
  7  8  1  0
  8  9  1  0
  9 10  1  0
 10 11  1  0
 11 12  2  0
 12 13  1  0
 13 14  2  0
 14 15  1  0
 15 16  2  0
  7 17  1  0
 17 18  1  0
 18 19  1  0
 19 20  1  0
 20 21  1  0
 20 22  1  0
 22 23  2  0
 23 24  1  0
 24 25  2  0
 25 26  1  0
 26 27  1  0
 26 28  2  0
 20  2  1  0
 18  4  1  0
 16 11  1  0
 28 22  1  0
M  END
>  <pIC50>  (394) 
7.89

>  <ChEMBL_ID>  (394) 
CHEMBL375165

>  <document_journal>  (394) 
J. Med. Chem.

>  <bao_endpoint>  (394) 
BAO_0000190

>  <potential_duplicate>  (394) 
False

>  <uo_units>  (394) 
UO_0000065

>  <canonical_smiles>  (394) 
C[C@H]1CN2CCN(CCCc3ccccc3)C[C@H]2C[C@@]1(C)c4cccc(O)c4

>  <parent_molecule_chembl_id>  (394) 
CHEMBL375165

>  <assay_type>  (394) 
F

>  <src_id>  (394) 
1

>  <ligand_efficiency>  (394) 
None

>  <standard_flag>  (394) 
True

>  <molecule_chembl_id>  (394) 
CHEMBL375165

>  <target_organism>  (394) 
Homo sapiens

>  <standard_units>  (394) 
nM

>  <record_id>  (394) 
619661

>  <document_chembl_id>  (394) 
CHEMBL1137297

>  <bao_format>  (394) 
BAO_0000219

>  <data_validity_description>  (394) 
None

>  <activity_id>  (394) 
1795594

>  <standard_type>  (394) 
IC50

>  <target_chembl_id>  (394) 
CHEMBL233

>  <data_validity_comment>  (394) 
None

>  <published_value>  (394) 
13

>  <document_year>  (394) 
2006

>  <target_pref_name>  (394) 
Mu opioid receptor

>  <assay_chembl_id>  (394) 
CHEMBL909298

>  <standard_relation>  (394) 
=

>  <assay_description>  (394) 
Antagonist activity assessed as inhibition of loperamide-stimulated [35S]GTPgammaS binding to human mu opioid receptor expressed in CHO cells

>  <published_relation>  (394) 
=

>  <standard_value>  (394) 
13

>  <qudt_units>  (394) 
http://www.openphacts.org/units/Nanomolar

>  <target_tax_id>  (394) 
9606

>  <bao_label>  (394) 
cell-based format

>  <published_units>  (394) 
nM

>  <pchembl_value>  (394) 
7.89

>  <published_type>  (394) 
IC50

>  <activity_comment>  (394) 
None

$$$$

     RDKit          

 27 30  0  0  0  0  0  0  0  0999 V2000
    0.0000    0.0000    0.0000 C   0  0  0  0  0  0  0  0  0  0  0  0
    0.0000    0.0000    0.0000 C   0  0  0  0  0  0  0  0  0  0  0  0
    0.0000    0.0000    0.0000 C   0  0  0  0  0  0  0  0  0  0  0  0
    0.0000    0.0000    0.0000 N   0  0  0  0  0  0  0  0  0  0  0  0
    0.0000    0.0000    0.0000 C   0  0  0  0  0  0  0  0  0  0  0  0
    0.0000    0.0000    0.0000 C   0  0  0  0  0  0  0  0  0  0  0  0
    0.0000    0.0000    0.0000 N   0  0  0  0  0  0  0  0  0  0  0  0
    0.0000    0.0000    0.0000 C   0  0  0  0  0  0  0  0  0  0  0  0
    0.0000    0.0000    0.0000 C   0  0  0  0  0  0  0  0  0  0  0  0
    0.0000    0.0000    0.0000 C   0  0  0  0  0  0  0  0  0  0  0  0
    0.0000    0.0000    0.0000 C   0  0  0  0  0  0  0  0  0  0  0  0
    0.0000    0.0000    0.0000 C   0  0  0  0  0  0  0  0  0  0  0  0
    0.0000    0.0000    0.0000 C   0  0  0  0  0  0  0  0  0  0  0  0
    0.0000    0.0000    0.0000 C   0  0  0  0  0  0  0  0  0  0  0  0
    0.0000    0.0000    0.0000 C   0  0  0  0  0  0  0  0  0  0  0  0
    0.0000    0.0000    0.0000 C   0  0  0  0  0  0  0  0  0  0  0  0
    0.0000    0.0000    0.0000 C   0  0  0  0  0  0  0  0  0  0  0  0
    0.0000    0.0000    0.0000 C   0  0  0  0  0  0  0  0  0  0  0  0
    0.0000    0.0000    0.0000 C   0  0  0  0  0  0  0  0  0  0  0  0
    0.0000    0.0000    0.0000 C   0  0  0  0  0  0  0  0  0  0  0  0
    0.0000    0.0000    0.0000 C   0  0  0  0  0  0  0  0  0  0  0  0
    0.0000    0.0000    0.0000 C   0  0  0  0  0  0  0  0  0  0  0  0
    0.0000    0.0000    0.0000 C   0  0  0  0  0  0  0  0  0  0  0  0
    0.0000    0.0000    0.0000 C   0  0  0  0  0  0  0  0  0  0  0  0
    0.0000    0.0000    0.0000 C   0  0  0  0  0  0  0  0  0  0  0  0
    0.0000    0.0000    0.0000 O   0  0  0  0  0  0  0  0  0  0  0  0
    0.0000    0.0000    0.0000 C   0  0  0  0  0  0  0  0  0  0  0  0
  1  2  1  0
  2  3  1  0
  3  4  1  0
  4  5  1  0
  5  6  1  0
  6  7  1  0
  7  8  1  0
  8  9  1  0
  9 10  1  0
 10 11  2  0
 11 12  1  0
 12 13  2  0
 13 14  1  0
 14 15  2  0
  7 16  1  0
 16 17  1  0
 17 18  1  0
 18 19  1  0
 19 20  1  0
 19 21  1  0
 21 22  2  0
 22 23  1  0
 23 24  2  0
 24 25  1  0
 25 26  1  0
 25 27  2  0
 19  2  1  0
 17  4  1  0
 15 10  1  0
 27 21  1  0
M  END
>  <pIC50>  (395) 
8.19

>  <ChEMBL_ID>  (395) 
CHEMBL219495

>  <document_journal>  (395) 
J. Med. Chem.

>  <bao_endpoint>  (395) 
BAO_0000190

>  <potential_duplicate>  (395) 
False

>  <uo_units>  (395) 
UO_0000065

>  <canonical_smiles>  (395) 
C[C@H]1CN2CCN(CCc3ccccc3)C[C@H]2C[C@@]1(C)c4cccc(O)c4

>  <parent_molecule_chembl_id>  (395) 
CHEMBL219495

>  <assay_type>  (395) 
F

>  <src_id>  (395) 
1

>  <ligand_efficiency>  (395) 
None

>  <standard_flag>  (395) 
True

>  <molecule_chembl_id>  (395) 
CHEMBL219495

>  <target_organism>  (395) 
Homo sapiens

>  <standard_units>  (395) 
nM

>  <record_id>  (395) 
619660

>  <document_chembl_id>  (395) 
CHEMBL1137297

>  <bao_format>  (395) 
BAO_0000219

>  <data_validity_description>  (395) 
None

>  <activity_id>  (395) 
1795595

>  <standard_type>  (395) 
IC50

>  <target_chembl_id>  (395) 
CHEMBL233

>  <data_validity_comment>  (395) 
None

>  <published_value>  (395) 
2

>  <document_year>  (395) 
2006

>  <target_pref_name>  (395) 
Mu opioid receptor

>  <assay_chembl_id>  (395) 
CHEMBL909298

>  <standard_relation>  (395) 
=

>  <assay_description>  (395) 
Antagonist activity assessed as inhibition of loperamide-stimulated [35S]GTPgammaS binding to human mu opioid receptor expressed in CHO cells

>  <published_relation>  (395) 
=

>  <standard_value>  (395) 
2

>  <qudt_units>  (395) 
http://www.openphacts.org/units/Nanomolar

>  <target_tax_id>  (395) 
9606

>  <bao_label>  (395) 
cell-based format

>  <published_units>  (395) 
nM

>  <pchembl_value>  (395) 
8.7

>  <published_type>  (395) 
IC50

>  <activity_comment>  (395) 
None

$$$$

     RDKit          

 26 29  0  0  0  0  0  0  0  0999 V2000
    0.0000    0.0000    0.0000 C   0  0  0  0  0  0  0  0  0  0  0  0
    0.0000    0.0000    0.0000 C   0  0  0  0  0  0  0  0  0  0  0  0
    0.0000    0.0000    0.0000 C   0  0  0  0  0  0  0  0  0  0  0  0
    0.0000    0.0000    0.0000 N   0  0  0  0  0  0  0  0  0  0  0  0
    0.0000    0.0000    0.0000 C   0  0  0  0  0  0  0  0  0  0  0  0
    0.0000    0.0000    0.0000 C   0  0  0  0  0  0  0  0  0  0  0  0
    0.0000    0.0000    0.0000 N   0  0  0  0  0  0  0  0  0  0  0  0
    0.0000    0.0000    0.0000 C   0  0  0  0  0  0  0  0  0  0  0  0
    0.0000    0.0000    0.0000 C   0  0  0  0  0  0  0  0  0  0  0  0
    0.0000    0.0000    0.0000 C   0  0  0  0  0  0  0  0  0  0  0  0
    0.0000    0.0000    0.0000 C   0  0  0  0  0  0  0  0  0  0  0  0
    0.0000    0.0000    0.0000 C   0  0  0  0  0  0  0  0  0  0  0  0
    0.0000    0.0000    0.0000 C   0  0  0  0  0  0  0  0  0  0  0  0
    0.0000    0.0000    0.0000 C   0  0  0  0  0  0  0  0  0  0  0  0
    0.0000    0.0000    0.0000 C   0  0  0  0  0  0  0  0  0  0  0  0
    0.0000    0.0000    0.0000 C   0  0  0  0  0  0  0  0  0  0  0  0
    0.0000    0.0000    0.0000 C   0  0  0  0  0  0  0  0  0  0  0  0
    0.0000    0.0000    0.0000 C   0  0  0  0  0  0  0  0  0  0  0  0
    0.0000    0.0000    0.0000 C   0  0  0  0  0  0  0  0  0  0  0  0
    0.0000    0.0000    0.0000 C   0  0  0  0  0  0  0  0  0  0  0  0
    0.0000    0.0000    0.0000 C   0  0  0  0  0  0  0  0  0  0  0  0
    0.0000    0.0000    0.0000 C   0  0  0  0  0  0  0  0  0  0  0  0
    0.0000    0.0000    0.0000 C   0  0  0  0  0  0  0  0  0  0  0  0
    0.0000    0.0000    0.0000 C   0  0  0  0  0  0  0  0  0  0  0  0
    0.0000    0.0000    0.0000 O   0  0  0  0  0  0  0  0  0  0  0  0
    0.0000    0.0000    0.0000 C   0  0  0  0  0  0  0  0  0  0  0  0
  1  2  1  0
  2  3  1  0
  3  4  1  0
  4  5  1  0
  5  6  1  0
  6  7  1  0
  7  8  1  0
  8  9  1  0
  9 10  2  0
 10 11  1  0
 11 12  2  0
 12 13  1  0
 13 14  2  0
  7 15  1  0
 15 16  1  0
 16 17  1  0
 17 18  1  0
 18 19  1  0
 18 20  1  0
 20 21  2  0
 21 22  1  0
 22 23  2  0
 23 24  1  0
 24 25  1  0
 24 26  2  0
 18  2  1  0
 16  4  1  0
 14  9  1  0
 26 20  1  0
M  END
>  <pIC50>  (396) 
8.55

>  <ChEMBL_ID>  (396) 
CHEMBL376690

>  <document_journal>  (396) 
J. Med. Chem.

>  <bao_endpoint>  (396) 
BAO_0000190

>  <potential_duplicate>  (396) 
False

>  <uo_units>  (396) 
UO_0000065

>  <canonical_smiles>  (396) 
C[C@H]1CN2CCN(Cc3ccccc3)C[C@H]2C[C@@]1(C)c4cccc(O)c4

>  <parent_molecule_chembl_id>  (396) 
CHEMBL376690

>  <assay_type>  (396) 
F

>  <src_id>  (396) 
1

>  <ligand_efficiency>  (396) 
None

>  <standard_flag>  (396) 
True

>  <molecule_chembl_id>  (396) 
CHEMBL376690

>  <target_organism>  (396) 
Homo sapiens

>  <standard_units>  (396) 
nM

>  <record_id>  (396) 
619659

>  <document_chembl_id>  (396) 
CHEMBL1137297

>  <bao_format>  (396) 
BAO_0000219

>  <data_validity_description>  (396) 
None

>  <activity_id>  (396) 
1795596

>  <standard_type>  (396) 
IC50

>  <target_chembl_id>  (396) 
CHEMBL233

>  <data_validity_comment>  (396) 
None

>  <published_value>  (396) 
0.73

>  <document_year>  (396) 
2006

>  <target_pref_name>  (396) 
Mu opioid receptor

>  <assay_chembl_id>  (396) 
CHEMBL909298

>  <standard_relation>  (396) 
=

>  <assay_description>  (396) 
Antagonist activity assessed as inhibition of loperamide-stimulated [35S]GTPgammaS binding to human mu opioid receptor expressed in CHO cells

>  <published_relation>  (396) 
=

>  <standard_value>  (396) 
0.73

>  <qudt_units>  (396) 
http://www.openphacts.org/units/Nanomolar

>  <target_tax_id>  (396) 
9606

>  <bao_label>  (396) 
cell-based format

>  <published_units>  (396) 
nM

>  <pchembl_value>  (396) 
9.14

>  <published_type>  (396) 
IC50

>  <activity_comment>  (396) 
None

$$$$

     RDKit          

 25 28  0  0  0  0  0  0  0  0999 V2000
    0.0000    0.0000    0.0000 C   0  0  0  0  0  0  0  0  0  0  0  0
    0.0000    0.0000    0.0000 C   0  0  0  0  0  0  0  0  0  0  0  0
    0.0000    0.0000    0.0000 C   0  0  0  0  0  0  0  0  0  0  0  0
    0.0000    0.0000    0.0000 N   0  0  0  0  0  0  0  0  0  0  0  0
    0.0000    0.0000    0.0000 C   0  0  0  0  0  0  0  0  0  0  0  0
    0.0000    0.0000    0.0000 C   0  0  0  0  0  0  0  0  0  0  0  0
    0.0000    0.0000    0.0000 N   0  0  0  0  0  0  0  0  0  0  0  0
    0.0000    0.0000    0.0000 C   0  0  0  0  0  0  0  0  0  0  0  0
    0.0000    0.0000    0.0000 C   0  0  0  0  0  0  0  0  0  0  0  0
    0.0000    0.0000    0.0000 C   0  0  0  0  0  0  0  0  0  0  0  0
    0.0000    0.0000    0.0000 C   0  0  0  0  0  0  0  0  0  0  0  0
    0.0000    0.0000    0.0000 C   0  0  0  0  0  0  0  0  0  0  0  0
    0.0000    0.0000    0.0000 C   0  0  0  0  0  0  0  0  0  0  0  0
    0.0000    0.0000    0.0000 C   0  0  0  0  0  0  0  0  0  0  0  0
    0.0000    0.0000    0.0000 C   0  0  0  0  0  0  0  0  0  0  0  0
    0.0000    0.0000    0.0000 C   0  0  0  0  0  0  0  0  0  0  0  0
    0.0000    0.0000    0.0000 C   0  0  0  0  0  0  0  0  0  0  0  0
    0.0000    0.0000    0.0000 O   0  0  0  0  0  0  0  0  0  0  0  0
    0.0000    0.0000    0.0000 C   0  0  0  0  0  0  0  0  0  0  0  0
    0.0000    0.0000    0.0000 C   0  0  0  0  0  0  0  0  0  0  0  0
    0.0000    0.0000    0.0000 C   0  0  0  0  0  0  0  0  0  0  0  0
    0.0000    0.0000    0.0000 C   0  0  0  0  0  0  0  0  0  0  0  0
    0.0000    0.0000    0.0000 C   0  0  0  0  0  0  0  0  0  0  0  0
    0.0000    0.0000    0.0000 C   0  0  0  0  0  0  0  0  0  0  0  0
    0.0000    0.0000    0.0000 C   0  0  0  0  0  0  0  0  0  0  0  0
  1  2  1  0
  2  3  1  0
  3  4  1  0
  4  5  1  0
  5  6  1  0
  6  7  1  0
  7  8  1  0
  8  9  1  0
  9 10  1  0
 10 11  1  0
 11 12  1  0
 11 13  1  0
 13 14  2  0
 14 15  1  0
 15 16  2  0
 16 17  1  0
 17 18  1  0
 17 19  2  0
  7 20  1  0
 20 21  2  0
 21 22  1  0
 22 23  2  0
 23 24  1  0
 24 25  2  0
 11  2  1  0
  9  4  1  0
 19 13  1  0
 25 20  1  0
M  END
>  <pIC50>  (397) 
7.27

>  <ChEMBL_ID>  (397) 
CHEMBL220248

>  <document_journal>  (397) 
J. Med. Chem.

>  <bao_endpoint>  (397) 
BAO_0000190

>  <potential_duplicate>  (397) 
False

>  <uo_units>  (397) 
UO_0000065

>  <canonical_smiles>  (397) 
C[C@H]1CN2CCN(C[C@H]2C[C@@]1(C)c3cccc(O)c3)c4ccccc4

>  <parent_molecule_chembl_id>  (397) 
CHEMBL220248

>  <assay_type>  (397) 
F

>  <src_id>  (397) 
1

>  <ligand_efficiency>  (397) 
None

>  <standard_flag>  (397) 
True

>  <molecule_chembl_id>  (397) 
CHEMBL220248

>  <target_organism>  (397) 
Homo sapiens

>  <standard_units>  (397) 
nM

>  <record_id>  (397) 
619658

>  <document_chembl_id>  (397) 
CHEMBL1137297

>  <bao_format>  (397) 
BAO_0000219

>  <data_validity_description>  (397) 
None

>  <activity_id>  (397) 
1795597

>  <standard_type>  (397) 
IC50

>  <target_chembl_id>  (397) 
CHEMBL233

>  <data_validity_comment>  (397) 
None

>  <published_value>  (397) 
54

>  <document_year>  (397) 
2006

>  <target_pref_name>  (397) 
Mu opioid receptor

>  <assay_chembl_id>  (397) 
CHEMBL909298

>  <standard_relation>  (397) 
=

>  <assay_description>  (397) 
Antagonist activity assessed as inhibition of loperamide-stimulated [35S]GTPgammaS binding to human mu opioid receptor expressed in CHO cells

>  <published_relation>  (397) 
=

>  <standard_value>  (397) 
54

>  <qudt_units>  (397) 
http://www.openphacts.org/units/Nanomolar

>  <target_tax_id>  (397) 
9606

>  <bao_label>  (397) 
cell-based format

>  <published_units>  (397) 
nM

>  <pchembl_value>  (397) 
7.27

>  <published_type>  (397) 
IC50

>  <activity_comment>  (397) 
None

$$$$

     RDKit          

 29 32  0  0  0  0  0  0  0  0999 V2000
    0.0000    0.0000    0.0000 C   0  0  0  0  0  0  0  0  0  0  0  0
    0.0000    0.0000    0.0000 C   0  0  0  0  0  0  0  0  0  0  0  0
    0.0000    0.0000    0.0000 C   0  0  0  0  0  0  0  0  0  0  0  0
    0.0000    0.0000    0.0000 N   0  0  0  0  0  0  0  0  0  0  0  0
    0.0000    0.0000    0.0000 C   0  0  0  0  0  0  0  0  0  0  0  0
    0.0000    0.0000    0.0000 C   0  0  0  0  0  0  0  0  0  0  0  0
    0.0000    0.0000    0.0000 N   0  0  0  0  0  0  0  0  0  0  0  0
    0.0000    0.0000    0.0000 C   0  0  0  0  0  0  0  0  0  0  0  0
    0.0000    0.0000    0.0000 C   0  0  0  0  0  0  0  0  0  0  0  0
    0.0000    0.0000    0.0000 C   0  0  0  0  0  0  0  0  0  0  0  0
    0.0000    0.0000    0.0000 C   0  0  0  0  0  0  0  0  0  0  0  0
    0.0000    0.0000    0.0000 C   0  0  0  0  0  0  0  0  0  0  0  0
    0.0000    0.0000    0.0000 C   0  0  0  0  0  0  0  0  0  0  0  0
    0.0000    0.0000    0.0000 C   0  0  0  0  0  0  0  0  0  0  0  0
    0.0000    0.0000    0.0000 C   0  0  0  0  0  0  0  0  0  0  0  0
    0.0000    0.0000    0.0000 C   0  0  0  0  0  0  0  0  0  0  0  0
    0.0000    0.0000    0.0000 C   0  0  0  0  0  0  0  0  0  0  0  0
    0.0000    0.0000    0.0000 O   0  0  0  0  0  0  0  0  0  0  0  0
    0.0000    0.0000    0.0000 C   0  0  0  0  0  0  0  0  0  0  0  0
    0.0000    0.0000    0.0000 C   0  0  0  0  0  0  0  0  0  0  0  0
    0.0000    0.0000    0.0000 O   0  0  0  0  0  0  0  0  0  0  0  0
    0.0000    0.0000    0.0000 C   0  0  0  0  0  0  0  0  0  0  0  0
    0.0000    0.0000    0.0000 C   0  0  0  0  0  0  0  0  0  0  0  0
    0.0000    0.0000    0.0000 C   0  0  0  0  0  0  0  0  0  0  0  0
    0.0000    0.0000    0.0000 C   0  0  0  0  0  0  0  0  0  0  0  0
    0.0000    0.0000    0.0000 C   0  0  0  0  0  0  0  0  0  0  0  0
    0.0000    0.0000    0.0000 C   0  0  0  0  0  0  0  0  0  0  0  0
    0.0000    0.0000    0.0000 C   0  0  0  0  0  0  0  0  0  0  0  0
    0.0000    0.0000    0.0000 C   0  0  0  0  0  0  0  0  0  0  0  0
  1  2  1  0
  2  3  1  0
  3  4  1  0
  4  5  1  0
  5  6  1  0
  6  7  1  0
  7  8  1  0
  8  9  1  0
  9 10  1  0
 10 11  1  0
 11 12  1  0
 11 13  1  0
 13 14  2  0
 14 15  1  0
 15 16  2  0
 16 17  1  0
 17 18  1  0
 17 19  2  0
  7 20  1  0
 20 21  2  0
 20 22  1  0
 22 23  1  0
 23 24  1  0
 24 25  2  0
 25 26  1  0
 26 27  2  0
 27 28  1  0
 28 29  2  0
 11  2  1  0
  9  4  1  0
 19 13  1  0
 29 24  1  0
M  END
>  <pIC50>  (398) 
7.11

>  <ChEMBL_ID>  (398) 
CHEMBL384336

>  <document_journal>  (398) 
J. Med. Chem.

>  <bao_endpoint>  (398) 
BAO_0000190

>  <potential_duplicate>  (398) 
False

>  <uo_units>  (398) 
UO_0000065

>  <canonical_smiles>  (398) 
C[C@H]1CN2CCN(C[C@H]2C[C@@]1(C)c3cccc(O)c3)C(=O)CCc4ccccc4

>  <parent_molecule_chembl_id>  (398) 
CHEMBL384336

>  <assay_type>  (398) 
F

>  <src_id>  (398) 
1

>  <ligand_efficiency>  (398) 
None

>  <standard_flag>  (398) 
True

>  <molecule_chembl_id>  (398) 
CHEMBL384336

>  <target_organism>  (398) 
Homo sapiens

>  <standard_units>  (398) 
nM

>  <record_id>  (398) 
619657

>  <document_chembl_id>  (398) 
CHEMBL1137297

>  <bao_format>  (398) 
BAO_0000219

>  <data_validity_description>  (398) 
None

>  <activity_id>  (398) 
1795598

>  <standard_type>  (398) 
IC50

>  <target_chembl_id>  (398) 
CHEMBL233

>  <data_validity_comment>  (398) 
None

>  <published_value>  (398) 
78

>  <document_year>  (398) 
2006

>  <target_pref_name>  (398) 
Mu opioid receptor

>  <assay_chembl_id>  (398) 
CHEMBL909298

>  <standard_relation>  (398) 
=

>  <assay_description>  (398) 
Antagonist activity assessed as inhibition of loperamide-stimulated [35S]GTPgammaS binding to human mu opioid receptor expressed in CHO cells

>  <published_relation>  (398) 
=

>  <standard_value>  (398) 
78

>  <qudt_units>  (398) 
http://www.openphacts.org/units/Nanomolar

>  <target_tax_id>  (398) 
9606

>  <bao_label>  (398) 
cell-based format

>  <published_units>  (398) 
nM

>  <pchembl_value>  (398) 
7.11

>  <published_type>  (398) 
IC50

>  <activity_comment>  (398) 
None

$$$$

     RDKit          

 28 31  0  0  0  0  0  0  0  0999 V2000
    0.0000    0.0000    0.0000 C   0  0  0  0  0  0  0  0  0  0  0  0
    0.0000    0.0000    0.0000 C   0  0  0  0  0  0  0  0  0  0  0  0
    0.0000    0.0000    0.0000 C   0  0  0  0  0  0  0  0  0  0  0  0
    0.0000    0.0000    0.0000 N   0  0  0  0  0  0  0  0  0  0  0  0
    0.0000    0.0000    0.0000 C   0  0  0  0  0  0  0  0  0  0  0  0
    0.0000    0.0000    0.0000 C   0  0  0  0  0  0  0  0  0  0  0  0
    0.0000    0.0000    0.0000 N   0  0  0  0  0  0  0  0  0  0  0  0
    0.0000    0.0000    0.0000 C   0  0  0  0  0  0  0  0  0  0  0  0
    0.0000    0.0000    0.0000 C   0  0  0  0  0  0  0  0  0  0  0  0
    0.0000    0.0000    0.0000 C   0  0  0  0  0  0  0  0  0  0  0  0
    0.0000    0.0000    0.0000 C   0  0  0  0  0  0  0  0  0  0  0  0
    0.0000    0.0000    0.0000 C   0  0  0  0  0  0  0  0  0  0  0  0
    0.0000    0.0000    0.0000 C   0  0  0  0  0  0  0  0  0  0  0  0
    0.0000    0.0000    0.0000 C   0  0  0  0  0  0  0  0  0  0  0  0
    0.0000    0.0000    0.0000 C   0  0  0  0  0  0  0  0  0  0  0  0
    0.0000    0.0000    0.0000 C   0  0  0  0  0  0  0  0  0  0  0  0
    0.0000    0.0000    0.0000 C   0  0  0  0  0  0  0  0  0  0  0  0
    0.0000    0.0000    0.0000 O   0  0  0  0  0  0  0  0  0  0  0  0
    0.0000    0.0000    0.0000 C   0  0  0  0  0  0  0  0  0  0  0  0
    0.0000    0.0000    0.0000 C   0  0  0  0  0  0  0  0  0  0  0  0
    0.0000    0.0000    0.0000 O   0  0  0  0  0  0  0  0  0  0  0  0
    0.0000    0.0000    0.0000 C   0  0  0  0  0  0  0  0  0  0  0  0
    0.0000    0.0000    0.0000 C   0  0  0  0  0  0  0  0  0  0  0  0
    0.0000    0.0000    0.0000 C   0  0  0  0  0  0  0  0  0  0  0  0
    0.0000    0.0000    0.0000 C   0  0  0  0  0  0  0  0  0  0  0  0
    0.0000    0.0000    0.0000 C   0  0  0  0  0  0  0  0  0  0  0  0
    0.0000    0.0000    0.0000 C   0  0  0  0  0  0  0  0  0  0  0  0
    0.0000    0.0000    0.0000 C   0  0  0  0  0  0  0  0  0  0  0  0
  1  2  1  0
  2  3  1  0
  3  4  1  0
  4  5  1  0
  5  6  1  0
  6  7  1  0
  7  8  1  0
  8  9  1  0
  9 10  1  0
 10 11  1  0
 11 12  1  0
 11 13  1  0
 13 14  2  0
 14 15  1  0
 15 16  2  0
 16 17  1  0
 17 18  1  0
 17 19  2  0
  7 20  1  0
 20 21  2  0
 20 22  1  0
 22 23  1  0
 23 24  2  0
 24 25  1  0
 25 26  2  0
 26 27  1  0
 27 28  2  0
 11  2  1  0
  9  4  1  0
 19 13  1  0
 28 23  1  0
M  END
>  <pIC50>  (399) 
8.17

>  <ChEMBL_ID>  (399) 
CHEMBL218135

>  <document_journal>  (399) 
J. Med. Chem.

>  <bao_endpoint>  (399) 
BAO_0000190

>  <potential_duplicate>  (399) 
False

>  <uo_units>  (399) 
UO_0000065

>  <canonical_smiles>  (399) 
C[C@H]1CN2CCN(C[C@H]2C[C@@]1(C)c3cccc(O)c3)C(=O)Cc4ccccc4

>  <parent_molecule_chembl_id>  (399) 
CHEMBL218135

>  <assay_type>  (399) 
F

>  <src_id>  (399) 
1

>  <ligand_efficiency>  (399) 
None

>  <standard_flag>  (399) 
True

>  <molecule_chembl_id>  (399) 
CHEMBL218135

>  <target_organism>  (399) 
Homo sapiens

>  <standard_units>  (399) 
nM

>  <record_id>  (399) 
619656

>  <document_chembl_id>  (399) 
CHEMBL1137297

>  <bao_format>  (399) 
BAO_0000219

>  <data_validity_description>  (399) 
None

>  <activity_id>  (399) 
1795599

>  <standard_type>  (399) 
IC50

>  <target_chembl_id>  (399) 
CHEMBL233

>  <data_validity_comment>  (399) 
None

>  <published_value>  (399) 
6.7

>  <document_year>  (399) 
2006

>  <target_pref_name>  (399) 
Mu opioid receptor

>  <assay_chembl_id>  (399) 
CHEMBL909298

>  <standard_relation>  (399) 
=

>  <assay_description>  (399) 
Antagonist activity assessed as inhibition of loperamide-stimulated [35S]GTPgammaS binding to human mu opioid receptor expressed in CHO cells

>  <published_relation>  (399) 
=

>  <standard_value>  (399) 
6.7

>  <qudt_units>  (399) 
http://www.openphacts.org/units/Nanomolar

>  <target_tax_id>  (399) 
9606

>  <bao_label>  (399) 
cell-based format

>  <published_units>  (399) 
nM

>  <pchembl_value>  (399) 
8.17

>  <published_type>  (399) 
IC50

>  <activity_comment>  (399) 
None

$$$$

     RDKit          

 30 33  0  0  0  0  0  0  0  0999 V2000
    0.0000    0.0000    0.0000 C   0  0  0  0  0  0  0  0  0  0  0  0
    0.0000    0.0000    0.0000 O   0  0  0  0  0  0  0  0  0  0  0  0
    0.0000    0.0000    0.0000 C   0  0  0  0  0  0  0  0  0  0  0  0
    0.0000    0.0000    0.0000 O   0  0  0  0  0  0  0  0  0  0  0  0
    0.0000    0.0000    0.0000 C   0  0  0  0  0  0  0  0  0  0  0  0
    0.0000    0.0000    0.0000 C   0  0  0  0  0  0  0  0  0  0  0  0
    0.0000    0.0000    0.0000 C   0  0  0  0  0  0  0  0  0  0  0  0
    0.0000    0.0000    0.0000 C   0  0  0  0  0  0  0  0  0  0  0  0
    0.0000    0.0000    0.0000 C   0  0  0  0  0  0  0  0  0  0  0  0
    0.0000    0.0000    0.0000 C   0  0  0  0  0  0  0  0  0  0  0  0
    0.0000    0.0000    0.0000 N   0  0  0  0  0  0  0  0  0  0  0  0
    0.0000    0.0000    0.0000 C   0  0  0  0  0  0  0  0  0  0  0  0
    0.0000    0.0000    0.0000 C   0  0  0  0  0  0  0  0  0  0  0  0
    0.0000    0.0000    0.0000 N   0  0  0  0  0  0  0  0  0  0  0  0
    0.0000    0.0000    0.0000 C   0  0  0  0  0  0  0  0  0  0  0  0
    0.0000    0.0000    0.0000 C   0  0  0  0  0  0  0  0  0  0  0  0
    0.0000    0.0000    0.0000 C   0  0  0  0  0  0  0  0  0  0  0  0
    0.0000    0.0000    0.0000 C   0  0  0  0  0  0  0  0  0  0  0  0
    0.0000    0.0000    0.0000 C   0  0  0  0  0  0  0  0  0  0  0  0
    0.0000    0.0000    0.0000 C   0  0  0  0  0  0  0  0  0  0  0  0
    0.0000    0.0000    0.0000 C   0  0  0  0  0  0  0  0  0  0  0  0
    0.0000    0.0000    0.0000 C   0  0  0  0  0  0  0  0  0  0  0  0
    0.0000    0.0000    0.0000 C   0  0  0  0  0  0  0  0  0  0  0  0
    0.0000    0.0000    0.0000 C   0  0  0  0  0  0  0  0  0  0  0  0
    0.0000    0.0000    0.0000 C   0  0  0  0  0  0  0  0  0  0  0  0
    0.0000    0.0000    0.0000 C   0  0  0  0  0  0  0  0  0  0  0  0
    0.0000    0.0000    0.0000 C   0  0  0  0  0  0  0  0  0  0  0  0
    0.0000    0.0000    0.0000 O   0  0  0  0  0  0  0  0  0  0  0  0
    0.0000    0.0000    0.0000 C   0  0  0  0  0  0  0  0  0  0  0  0
    0.0000    0.0000    0.0000 C   0  0  0  0  0  0  0  0  0  0  0  0
  1  2  1  0
  2  3  1  0
  3  4  2  0
  3  5  1  0
  5  6  2  0
  6  7  1  0
  7  8  2  0
  8  9  1  0
  9 10  1  0
 10 11  1  0
 11 12  1  0
 12 13  1  0
 13 14  1  0
 14 15  1  0
 15 16  1  0
 16 17  1  0
 16 18  1  0
 18 19  1  0
 18 20  1  0
 20 21  1  0
 21 22  1  0
 18 23  1  0
 23 24  2  0
 24 25  1  0
 25 26  2  0
 26 27  1  0
 27 28  1  0
 27 29  2  0
  9 30  2  0
 30  5  1  0
 22 11  1  0
 21 14  1  0
 29 23  1  0
M  END
>  <pIC50>  (400) 
8.16

>  <ChEMBL_ID>  (400) 
CHEMBL219044

>  <document_journal>  (400) 
J. Med. Chem.

>  <bao_endpoint>  (400) 
BAO_0000190

>  <potential_duplicate>  (400) 
False

>  <uo_units>  (400) 
UO_0000065

>  <canonical_smiles>  (400) 
COC(=O)c1cccc(CN2CCN3C[C@H](C)[C@@](C)(C[C@@H]3C2)c4cccc(O)c4)c1

>  <parent_molecule_chembl_id>  (400) 
CHEMBL219044

>  <assay_type>  (400) 
F

>  <src_id>  (400) 
1

>  <ligand_efficiency>  (400) 
None

>  <standard_flag>  (400) 
True

>  <molecule_chembl_id>  (400) 
CHEMBL219044

>  <target_organism>  (400) 
Homo sapiens

>  <standard_units>  (400) 
nM

>  <record_id>  (400) 
619676

>  <document_chembl_id>  (400) 
CHEMBL1137297

>  <bao_format>  (400) 
BAO_0000219

>  <data_validity_description>  (400) 
None

>  <activity_id>  (400) 
1795614

>  <standard_type>  (400) 
IC50

>  <target_chembl_id>  (400) 
CHEMBL233

>  <data_validity_comment>  (400) 
None

>  <published_value>  (400) 
6.9

>  <document_year>  (400) 
2006

>  <target_pref_name>  (400) 
Mu opioid receptor

>  <assay_chembl_id>  (400) 
CHEMBL909298

>  <standard_relation>  (400) 
=

>  <assay_description>  (400) 
Antagonist activity assessed as inhibition of loperamide-stimulated [35S]GTPgammaS binding to human mu opioid receptor expressed in CHO cells

>  <published_relation>  (400) 
=

>  <standard_value>  (400) 
6.9

>  <qudt_units>  (400) 
http://www.openphacts.org/units/Nanomolar

>  <target_tax_id>  (400) 
9606

>  <bao_label>  (400) 
cell-based format

>  <published_units>  (400) 
nM

>  <pchembl_value>  (400) 
8.16

>  <published_type>  (400) 
IC50

>  <activity_comment>  (400) 
None

$$$$

     RDKit          

 29 32  0  0  0  0  0  0  0  0999 V2000
    0.0000    0.0000    0.0000 C   0  0  0  0  0  0  0  0  0  0  0  0
    0.0000    0.0000    0.0000 C   0  0  0  0  0  0  0  0  0  0  0  0
    0.0000    0.0000    0.0000 C   0  0  0  0  0  0  0  0  0  0  0  0
    0.0000    0.0000    0.0000 N   0  0  0  0  0  0  0  0  0  0  0  0
    0.0000    0.0000    0.0000 C   0  0  0  0  0  0  0  0  0  0  0  0
    0.0000    0.0000    0.0000 C   0  0  0  0  0  0  0  0  0  0  0  0
    0.0000    0.0000    0.0000 N   0  0  0  0  0  0  0  0  0  0  0  0
    0.0000    0.0000    0.0000 C   0  0  0  0  0  0  0  0  0  0  0  0
    0.0000    0.0000    0.0000 C   0  0  0  0  0  0  0  0  0  0  0  0
    0.0000    0.0000    0.0000 C   0  0  0  0  0  0  0  0  0  0  0  0
    0.0000    0.0000    0.0000 C   0  0  0  0  0  0  0  0  0  0  0  0
    0.0000    0.0000    0.0000 C   0  0  0  0  0  0  0  0  0  0  0  0
    0.0000    0.0000    0.0000 C   0  0  0  0  0  0  0  0  0  0  0  0
    0.0000    0.0000    0.0000 C   0  0  0  0  0  0  0  0  0  0  0  0
    0.0000    0.0000    0.0000 N   0  0  0  0  0  0  0  0  0  0  0  0
    0.0000    0.0000    0.0000 C   0  0  0  0  0  0  0  0  0  0  0  0
    0.0000    0.0000    0.0000 C   0  0  0  0  0  0  0  0  0  0  0  0
    0.0000    0.0000    0.0000 C   0  0  0  0  0  0  0  0  0  0  0  0
    0.0000    0.0000    0.0000 C   0  0  0  0  0  0  0  0  0  0  0  0
    0.0000    0.0000    0.0000 C   0  0  0  0  0  0  0  0  0  0  0  0
    0.0000    0.0000    0.0000 C   0  0  0  0  0  0  0  0  0  0  0  0
    0.0000    0.0000    0.0000 C   0  0  0  0  0  0  0  0  0  0  0  0
    0.0000    0.0000    0.0000 C   0  0  0  0  0  0  0  0  0  0  0  0
    0.0000    0.0000    0.0000 C   0  0  0  0  0  0  0  0  0  0  0  0
    0.0000    0.0000    0.0000 C   0  0  0  0  0  0  0  0  0  0  0  0
    0.0000    0.0000    0.0000 C   0  0  0  0  0  0  0  0  0  0  0  0
    0.0000    0.0000    0.0000 C   0  0  0  0  0  0  0  0  0  0  0  0
    0.0000    0.0000    0.0000 O   0  0  0  0  0  0  0  0  0  0  0  0
    0.0000    0.0000    0.0000 C   0  0  0  0  0  0  0  0  0  0  0  0
  1  2  1  0
  2  3  1  0
  3  4  1  0
  4  5  1  0
  5  6  1  0
  6  7  1  0
  7  8  1  0
  8  9  1  0
  9 10  2  0
 10 11  1  0
 11 12  2  0
 12 13  1  0
 13 14  2  0
 12 15  1  0
 15 16  1  0
 15 17  1  0
  7 18  1  0
 18 19  1  0
 19 20  1  0
 20 21  1  0
 21 22  1  0
 21 23  1  0
 23 24  2  0
 24 25  1  0
 25 26  2  0
 26 27  1  0
 27 28  1  0
 27 29  2  0
 21  2  1  0
 19  4  1  0
 14  9  1  0
 29 23  1  0
M  END
>  <pIC50>  (401) 
6.72

>  <ChEMBL_ID>  (401) 
CHEMBL219337

>  <document_journal>  (401) 
J. Med. Chem.

>  <bao_endpoint>  (401) 
BAO_0000190

>  <potential_duplicate>  (401) 
False

>  <uo_units>  (401) 
UO_0000065

>  <canonical_smiles>  (401) 
C[C@H]1CN2CCN(Cc3ccc(cc3)N(C)C)C[C@H]2C[C@@]1(C)c4cccc(O)c4

>  <parent_molecule_chembl_id>  (401) 
CHEMBL219337

>  <assay_type>  (401) 
F

>  <src_id>  (401) 
1

>  <ligand_efficiency>  (401) 
None

>  <standard_flag>  (401) 
True

>  <molecule_chembl_id>  (401) 
CHEMBL219337

>  <target_organism>  (401) 
Homo sapiens

>  <standard_units>  (401) 
nM

>  <record_id>  (401) 
619675

>  <document_chembl_id>  (401) 
CHEMBL1137297

>  <bao_format>  (401) 
BAO_0000219

>  <data_validity_description>  (401) 
None

>  <activity_id>  (401) 
1795615

>  <standard_type>  (401) 
IC50

>  <target_chembl_id>  (401) 
CHEMBL233

>  <data_validity_comment>  (401) 
None

>  <published_value>  (401) 
190

>  <document_year>  (401) 
2006

>  <target_pref_name>  (401) 
Mu opioid receptor

>  <assay_chembl_id>  (401) 
CHEMBL909298

>  <standard_relation>  (401) 
=

>  <assay_description>  (401) 
Antagonist activity assessed as inhibition of loperamide-stimulated [35S]GTPgammaS binding to human mu opioid receptor expressed in CHO cells

>  <published_relation>  (401) 
=

>  <standard_value>  (401) 
190

>  <qudt_units>  (401) 
http://www.openphacts.org/units/Nanomolar

>  <target_tax_id>  (401) 
9606

>  <bao_label>  (401) 
cell-based format

>  <published_units>  (401) 
nM

>  <pchembl_value>  (401) 
6.72

>  <published_type>  (401) 
IC50

>  <activity_comment>  (401) 
None

$$$$

     RDKit          

 27 30  0  0  0  0  0  0  0  0999 V2000
    0.0000    0.0000    0.0000 C   0  0  0  0  0  0  0  0  0  0  0  0
    0.0000    0.0000    0.0000 C   0  0  0  0  0  0  0  0  0  0  0  0
    0.0000    0.0000    0.0000 C   0  0  0  0  0  0  0  0  0  0  0  0
    0.0000    0.0000    0.0000 N   0  0  0  0  0  0  0  0  0  0  0  0
    0.0000    0.0000    0.0000 C   0  0  0  0  0  0  0  0  0  0  0  0
    0.0000    0.0000    0.0000 C   0  0  0  0  0  0  0  0  0  0  0  0
    0.0000    0.0000    0.0000 N   0  0  0  0  0  0  0  0  0  0  0  0
    0.0000    0.0000    0.0000 C   0  0  0  0  0  0  0  0  0  0  0  0
    0.0000    0.0000    0.0000 C   0  0  0  0  0  0  0  0  0  0  0  0
    0.0000    0.0000    0.0000 C   0  0  0  0  0  0  0  0  0  0  0  0
    0.0000    0.0000    0.0000 C   0  0  0  0  0  0  0  0  0  0  0  0
    0.0000    0.0000    0.0000 C   0  0  0  0  0  0  0  0  0  0  0  0
    0.0000    0.0000    0.0000 O   0  0  0  0  0  0  0  0  0  0  0  0
    0.0000    0.0000    0.0000 C   0  0  0  0  0  0  0  0  0  0  0  0
    0.0000    0.0000    0.0000 C   0  0  0  0  0  0  0  0  0  0  0  0
    0.0000    0.0000    0.0000 C   0  0  0  0  0  0  0  0  0  0  0  0
    0.0000    0.0000    0.0000 C   0  0  0  0  0  0  0  0  0  0  0  0
    0.0000    0.0000    0.0000 C   0  0  0  0  0  0  0  0  0  0  0  0
    0.0000    0.0000    0.0000 C   0  0  0  0  0  0  0  0  0  0  0  0
    0.0000    0.0000    0.0000 C   0  0  0  0  0  0  0  0  0  0  0  0
    0.0000    0.0000    0.0000 C   0  0  0  0  0  0  0  0  0  0  0  0
    0.0000    0.0000    0.0000 C   0  0  0  0  0  0  0  0  0  0  0  0
    0.0000    0.0000    0.0000 C   0  0  0  0  0  0  0  0  0  0  0  0
    0.0000    0.0000    0.0000 C   0  0  0  0  0  0  0  0  0  0  0  0
    0.0000    0.0000    0.0000 C   0  0  0  0  0  0  0  0  0  0  0  0
    0.0000    0.0000    0.0000 O   0  0  0  0  0  0  0  0  0  0  0  0
    0.0000    0.0000    0.0000 C   0  0  0  0  0  0  0  0  0  0  0  0
  1  2  1  0
  2  3  1  0
  3  4  1  0
  4  5  1  0
  5  6  1  0
  6  7  1  0
  7  8  1  0
  8  9  1  0
  9 10  2  0
 10 11  1  0
 11 12  2  0
 12 13  1  0
 12 14  1  0
 14 15  2  0
  7 16  1  0
 16 17  1  0
 17 18  1  0
 18 19  1  0
 19 20  1  0
 19 21  1  0
 21 22  2  0
 22 23  1  0
 23 24  2  0
 24 25  1  0
 25 26  1  0
 25 27  2  0
 19  2  1  0
 17  4  1  0
 15  9  1  0
 27 21  1  0
M  END
>  <pIC50>  (402) 
8.24

>  <ChEMBL_ID>  (402) 
CHEMBL375803

>  <document_journal>  (402) 
J. Med. Chem.

>  <bao_endpoint>  (402) 
BAO_0000190

>  <potential_duplicate>  (402) 
False

>  <uo_units>  (402) 
UO_0000065

>  <canonical_smiles>  (402) 
C[C@H]1CN2CCN(Cc3ccc(O)cc3)C[C@H]2C[C@@]1(C)c4cccc(O)c4

>  <parent_molecule_chembl_id>  (402) 
CHEMBL375803

>  <assay_type>  (402) 
F

>  <src_id>  (402) 
1

>  <ligand_efficiency>  (402) 
None

>  <standard_flag>  (402) 
True

>  <molecule_chembl_id>  (402) 
CHEMBL375803

>  <target_organism>  (402) 
Homo sapiens

>  <standard_units>  (402) 
nM

>  <record_id>  (402) 
619674

>  <document_chembl_id>  (402) 
CHEMBL1137297

>  <bao_format>  (402) 
BAO_0000219

>  <data_validity_description>  (402) 
None

>  <activity_id>  (402) 
1795616

>  <standard_type>  (402) 
IC50

>  <target_chembl_id>  (402) 
CHEMBL233

>  <data_validity_comment>  (402) 
None

>  <published_value>  (402) 
5.7

>  <document_year>  (402) 
2006

>  <target_pref_name>  (402) 
Mu opioid receptor

>  <assay_chembl_id>  (402) 
CHEMBL909298

>  <standard_relation>  (402) 
=

>  <assay_description>  (402) 
Antagonist activity assessed as inhibition of loperamide-stimulated [35S]GTPgammaS binding to human mu opioid receptor expressed in CHO cells

>  <published_relation>  (402) 
=

>  <standard_value>  (402) 
5.7

>  <qudt_units>  (402) 
http://www.openphacts.org/units/Nanomolar

>  <target_tax_id>  (402) 
9606

>  <bao_label>  (402) 
cell-based format

>  <published_units>  (402) 
nM

>  <pchembl_value>  (402) 
8.24

>  <published_type>  (402) 
IC50

>  <activity_comment>  (402) 
None

$$$$

     RDKit          

 27 30  0  0  0  0  0  0  0  0999 V2000
    0.0000    0.0000    0.0000 C   0  0  0  0  0  0  0  0  0  0  0  0
    0.0000    0.0000    0.0000 C   0  0  0  0  0  0  0  0  0  0  0  0
    0.0000    0.0000    0.0000 C   0  0  0  0  0  0  0  0  0  0  0  0
    0.0000    0.0000    0.0000 N   0  0  0  0  0  0  0  0  0  0  0  0
    0.0000    0.0000    0.0000 C   0  0  0  0  0  0  0  0  0  0  0  0
    0.0000    0.0000    0.0000 C   0  0  0  0  0  0  0  0  0  0  0  0
    0.0000    0.0000    0.0000 N   0  0  0  0  0  0  0  0  0  0  0  0
    0.0000    0.0000    0.0000 C   0  0  0  0  0  0  0  0  0  0  0  0
    0.0000    0.0000    0.0000 C   0  0  0  0  0  0  0  0  0  0  0  0
    0.0000    0.0000    0.0000 C   0  0  0  0  0  0  0  0  0  0  0  0
    0.0000    0.0000    0.0000 C   0  0  0  0  0  0  0  0  0  0  0  0
    0.0000    0.0000    0.0000 C   0  0  0  0  0  0  0  0  0  0  0  0
    0.0000    0.0000    0.0000 C   0  0  0  0  0  0  0  0  0  0  0  0
    0.0000    0.0000    0.0000 O   0  0  0  0  0  0  0  0  0  0  0  0
    0.0000    0.0000    0.0000 C   0  0  0  0  0  0  0  0  0  0  0  0
    0.0000    0.0000    0.0000 C   0  0  0  0  0  0  0  0  0  0  0  0
    0.0000    0.0000    0.0000 C   0  0  0  0  0  0  0  0  0  0  0  0
    0.0000    0.0000    0.0000 C   0  0  0  0  0  0  0  0  0  0  0  0
    0.0000    0.0000    0.0000 C   0  0  0  0  0  0  0  0  0  0  0  0
    0.0000    0.0000    0.0000 C   0  0  0  0  0  0  0  0  0  0  0  0
    0.0000    0.0000    0.0000 C   0  0  0  0  0  0  0  0  0  0  0  0
    0.0000    0.0000    0.0000 C   0  0  0  0  0  0  0  0  0  0  0  0
    0.0000    0.0000    0.0000 C   0  0  0  0  0  0  0  0  0  0  0  0
    0.0000    0.0000    0.0000 C   0  0  0  0  0  0  0  0  0  0  0  0
    0.0000    0.0000    0.0000 C   0  0  0  0  0  0  0  0  0  0  0  0
    0.0000    0.0000    0.0000 O   0  0  0  0  0  0  0  0  0  0  0  0
    0.0000    0.0000    0.0000 C   0  0  0  0  0  0  0  0  0  0  0  0
  1  2  1  0
  2  3  1  0
  3  4  1  0
  4  5  1  0
  5  6  1  0
  6  7  1  0
  7  8  1  0
  8  9  1  0
  9 10  2  0
 10 11  1  0
 11 12  2  0
 12 13  1  0
 13 14  1  0
 13 15  2  0
  7 16  1  0
 16 17  1  0
 17 18  1  0
 18 19  1  0
 19 20  1  0
 19 21  1  0
 21 22  2  0
 22 23  1  0
 23 24  2  0
 24 25  1  0
 25 26  1  0
 25 27  2  0
 19  2  1  0
 17  4  1  0
 15  9  1  0
 27 21  1  0
M  END
>  <pIC50>  (403) 
8.35

>  <ChEMBL_ID>  (403) 
CHEMBL218909

>  <document_journal>  (403) 
J. Med. Chem.

>  <bao_endpoint>  (403) 
BAO_0000190

>  <potential_duplicate>  (403) 
False

>  <uo_units>  (403) 
UO_0000065

>  <canonical_smiles>  (403) 
C[C@H]1CN2CCN(Cc3cccc(O)c3)C[C@H]2C[C@@]1(C)c4cccc(O)c4

>  <parent_molecule_chembl_id>  (403) 
CHEMBL218909

>  <assay_type>  (403) 
F

>  <src_id>  (403) 
1

>  <ligand_efficiency>  (403) 
None

>  <standard_flag>  (403) 
True

>  <molecule_chembl_id>  (403) 
CHEMBL218909

>  <target_organism>  (403) 
Homo sapiens

>  <standard_units>  (403) 
nM

>  <record_id>  (403) 
619673

>  <document_chembl_id>  (403) 
CHEMBL1137297

>  <bao_format>  (403) 
BAO_0000219

>  <data_validity_description>  (403) 
None

>  <activity_id>  (403) 
1795617

>  <standard_type>  (403) 
IC50

>  <target_chembl_id>  (403) 
CHEMBL233

>  <data_validity_comment>  (403) 
None

>  <published_value>  (403) 
4.5

>  <document_year>  (403) 
2006

>  <target_pref_name>  (403) 
Mu opioid receptor

>  <assay_chembl_id>  (403) 
CHEMBL909298

>  <standard_relation>  (403) 
=

>  <assay_description>  (403) 
Antagonist activity assessed as inhibition of loperamide-stimulated [35S]GTPgammaS binding to human mu opioid receptor expressed in CHO cells

>  <published_relation>  (403) 
=

>  <standard_value>  (403) 
4.5

>  <qudt_units>  (403) 
http://www.openphacts.org/units/Nanomolar

>  <target_tax_id>  (403) 
9606

>  <bao_label>  (403) 
cell-based format

>  <published_units>  (403) 
nM

>  <pchembl_value>  (403) 
8.35

>  <published_type>  (403) 
IC50

>  <activity_comment>  (403) 
None

$$$$

     RDKit          

 27 30  0  0  0  0  0  0  0  0999 V2000
    0.0000    0.0000    0.0000 C   0  0  0  0  0  0  0  0  0  0  0  0
    0.0000    0.0000    0.0000 C   0  0  0  0  0  0  0  0  0  0  0  0
    0.0000    0.0000    0.0000 C   0  0  0  0  0  0  0  0  0  0  0  0
    0.0000    0.0000    0.0000 N   0  0  0  0  0  0  0  0  0  0  0  0
    0.0000    0.0000    0.0000 C   0  0  0  0  0  0  0  0  0  0  0  0
    0.0000    0.0000    0.0000 C   0  0  0  0  0  0  0  0  0  0  0  0
    0.0000    0.0000    0.0000 N   0  0  0  0  0  0  0  0  0  0  0  0
    0.0000    0.0000    0.0000 C   0  0  0  0  0  0  0  0  0  0  0  0
    0.0000    0.0000    0.0000 C   0  0  0  0  0  0  0  0  0  0  0  0
    0.0000    0.0000    0.0000 C   0  0  0  0  0  0  0  0  0  0  0  0
    0.0000    0.0000    0.0000 C   0  0  0  0  0  0  0  0  0  0  0  0
    0.0000    0.0000    0.0000 C   0  0  0  0  0  0  0  0  0  0  0  0
    0.0000    0.0000    0.0000 C   0  0  0  0  0  0  0  0  0  0  0  0
    0.0000    0.0000    0.0000 C   0  0  0  0  0  0  0  0  0  0  0  0
    0.0000    0.0000    0.0000 O   0  0  0  0  0  0  0  0  0  0  0  0
    0.0000    0.0000    0.0000 C   0  0  0  0  0  0  0  0  0  0  0  0
    0.0000    0.0000    0.0000 C   0  0  0  0  0  0  0  0  0  0  0  0
    0.0000    0.0000    0.0000 C   0  0  0  0  0  0  0  0  0  0  0  0
    0.0000    0.0000    0.0000 C   0  0  0  0  0  0  0  0  0  0  0  0
    0.0000    0.0000    0.0000 C   0  0  0  0  0  0  0  0  0  0  0  0
    0.0000    0.0000    0.0000 C   0  0  0  0  0  0  0  0  0  0  0  0
    0.0000    0.0000    0.0000 C   0  0  0  0  0  0  0  0  0  0  0  0
    0.0000    0.0000    0.0000 C   0  0  0  0  0  0  0  0  0  0  0  0
    0.0000    0.0000    0.0000 C   0  0  0  0  0  0  0  0  0  0  0  0
    0.0000    0.0000    0.0000 C   0  0  0  0  0  0  0  0  0  0  0  0
    0.0000    0.0000    0.0000 O   0  0  0  0  0  0  0  0  0  0  0  0
    0.0000    0.0000    0.0000 C   0  0  0  0  0  0  0  0  0  0  0  0
  1  2  1  0
  2  3  1  0
  3  4  1  0
  4  5  1  0
  5  6  1  0
  6  7  1  0
  7  8  1  0
  8  9  1  0
  9 10  2  0
 10 11  1  0
 11 12  2  0
 12 13  1  0
 13 14  2  0
 14 15  1  0
  7 16  1  0
 16 17  1  0
 17 18  1  0
 18 19  1  0
 19 20  1  0
 19 21  1  0
 21 22  2  0
 22 23  1  0
 23 24  2  0
 24 25  1  0
 25 26  1  0
 25 27  2  0
 19  2  1  0
 17  4  1  0
 14  9  1  0
 27 21  1  0
M  END
>  <pIC50>  (404) 
8.8

>  <ChEMBL_ID>  (404) 
CHEMBL218242

>  <document_journal>  (404) 
J. Med. Chem.

>  <bao_endpoint>  (404) 
BAO_0000190

>  <potential_duplicate>  (404) 
False

>  <uo_units>  (404) 
UO_0000065

>  <canonical_smiles>  (404) 
C[C@H]1CN2CCN(Cc3ccccc3O)C[C@H]2C[C@@]1(C)c4cccc(O)c4

>  <parent_molecule_chembl_id>  (404) 
CHEMBL218242

>  <assay_type>  (404) 
F

>  <src_id>  (404) 
1

>  <ligand_efficiency>  (404) 
None

>  <standard_flag>  (404) 
True

>  <molecule_chembl_id>  (404) 
CHEMBL218242

>  <target_organism>  (404) 
Homo sapiens

>  <standard_units>  (404) 
nM

>  <record_id>  (404) 
619672

>  <document_chembl_id>  (404) 
CHEMBL1137297

>  <bao_format>  (404) 
BAO_0000219

>  <data_validity_description>  (404) 
None

>  <activity_id>  (404) 
1795618

>  <standard_type>  (404) 
IC50

>  <target_chembl_id>  (404) 
CHEMBL233

>  <data_validity_comment>  (404) 
None

>  <published_value>  (404) 
1.6

>  <document_year>  (404) 
2006

>  <target_pref_name>  (404) 
Mu opioid receptor

>  <assay_chembl_id>  (404) 
CHEMBL909298

>  <standard_relation>  (404) 
=

>  <assay_description>  (404) 
Antagonist activity assessed as inhibition of loperamide-stimulated [35S]GTPgammaS binding to human mu opioid receptor expressed in CHO cells

>  <published_relation>  (404) 
=

>  <standard_value>  (404) 
1.6

>  <qudt_units>  (404) 
http://www.openphacts.org/units/Nanomolar

>  <target_tax_id>  (404) 
9606

>  <bao_label>  (404) 
cell-based format

>  <published_units>  (404) 
nM

>  <pchembl_value>  (404) 
8.8

>  <published_type>  (404) 
IC50

>  <activity_comment>  (404) 
None

$$$$

     RDKit          

 27 30  0  0  0  0  0  0  0  0999 V2000
    0.0000    0.0000    0.0000 C   0  0  0  0  0  0  0  0  0  0  0  0
    0.0000    0.0000    0.0000 C   0  0  0  0  0  0  0  0  0  0  0  0
    0.0000    0.0000    0.0000 C   0  0  0  0  0  0  0  0  0  0  0  0
    0.0000    0.0000    0.0000 N   0  0  0  0  0  0  0  0  0  0  0  0
    0.0000    0.0000    0.0000 C   0  0  0  0  0  0  0  0  0  0  0  0
    0.0000    0.0000    0.0000 C   0  0  0  0  0  0  0  0  0  0  0  0
    0.0000    0.0000    0.0000 N   0  0  0  0  0  0  0  0  0  0  0  0
    0.0000    0.0000    0.0000 C   0  0  0  0  0  0  0  0  0  0  0  0
    0.0000    0.0000    0.0000 C   0  0  0  0  0  0  0  0  0  0  0  0
    0.0000    0.0000    0.0000 C   0  0  0  0  0  0  0  0  0  0  0  0
    0.0000    0.0000    0.0000 C   0  0  0  0  0  0  0  0  0  0  0  0
    0.0000    0.0000    0.0000 C   0  0  0  0  0  0  0  0  0  0  0  0
    0.0000    0.0000    0.0000 Cl  0  0  0  0  0  0  0  0  0  0  0  0
    0.0000    0.0000    0.0000 C   0  0  0  0  0  0  0  0  0  0  0  0
    0.0000    0.0000    0.0000 C   0  0  0  0  0  0  0  0  0  0  0  0
    0.0000    0.0000    0.0000 C   0  0  0  0  0  0  0  0  0  0  0  0
    0.0000    0.0000    0.0000 C   0  0  0  0  0  0  0  0  0  0  0  0
    0.0000    0.0000    0.0000 C   0  0  0  0  0  0  0  0  0  0  0  0
    0.0000    0.0000    0.0000 C   0  0  0  0  0  0  0  0  0  0  0  0
    0.0000    0.0000    0.0000 C   0  0  0  0  0  0  0  0  0  0  0  0
    0.0000    0.0000    0.0000 C   0  0  0  0  0  0  0  0  0  0  0  0
    0.0000    0.0000    0.0000 C   0  0  0  0  0  0  0  0  0  0  0  0
    0.0000    0.0000    0.0000 C   0  0  0  0  0  0  0  0  0  0  0  0
    0.0000    0.0000    0.0000 C   0  0  0  0  0  0  0  0  0  0  0  0
    0.0000    0.0000    0.0000 C   0  0  0  0  0  0  0  0  0  0  0  0
    0.0000    0.0000    0.0000 O   0  0  0  0  0  0  0  0  0  0  0  0
    0.0000    0.0000    0.0000 C   0  0  0  0  0  0  0  0  0  0  0  0
  1  2  1  0
  2  3  1  0
  3  4  1  0
  4  5  1  0
  5  6  1  0
  6  7  1  0
  7  8  1  0
  8  9  1  0
  9 10  2  0
 10 11  1  0
 11 12  2  0
 12 13  1  0
 12 14  1  0
 14 15  2  0
  7 16  1  0
 16 17  1  0
 17 18  1  0
 18 19  1  0
 19 20  1  0
 19 21  1  0
 21 22  2  0
 22 23  1  0
 23 24  2  0
 24 25  1  0
 25 26  1  0
 25 27  2  0
 19  2  1  0
 17  4  1  0
 15  9  1  0
 27 21  1  0
M  END
>  <pIC50>  (405) 
7.38

>  <ChEMBL_ID>  (405) 
CHEMBL218705

>  <document_journal>  (405) 
J. Med. Chem.

>  <bao_endpoint>  (405) 
BAO_0000190

>  <potential_duplicate>  (405) 
False

>  <uo_units>  (405) 
UO_0000065

>  <canonical_smiles>  (405) 
C[C@H]1CN2CCN(Cc3ccc(Cl)cc3)C[C@H]2C[C@@]1(C)c4cccc(O)c4

>  <parent_molecule_chembl_id>  (405) 
CHEMBL218705

>  <assay_type>  (405) 
F

>  <src_id>  (405) 
1

>  <ligand_efficiency>  (405) 
None

>  <standard_flag>  (405) 
True

>  <molecule_chembl_id>  (405) 
CHEMBL218705

>  <target_organism>  (405) 
Homo sapiens

>  <standard_units>  (405) 
nM

>  <record_id>  (405) 
619671

>  <document_chembl_id>  (405) 
CHEMBL1137297

>  <bao_format>  (405) 
BAO_0000219

>  <data_validity_description>  (405) 
None

>  <activity_id>  (405) 
1795619

>  <standard_type>  (405) 
IC50

>  <target_chembl_id>  (405) 
CHEMBL233

>  <data_validity_comment>  (405) 
None

>  <published_value>  (405) 
42

>  <document_year>  (405) 
2006

>  <target_pref_name>  (405) 
Mu opioid receptor

>  <assay_chembl_id>  (405) 
CHEMBL909298

>  <standard_relation>  (405) 
=

>  <assay_description>  (405) 
Antagonist activity assessed as inhibition of loperamide-stimulated [35S]GTPgammaS binding to human mu opioid receptor expressed in CHO cells

>  <published_relation>  (405) 
=

>  <standard_value>  (405) 
42

>  <qudt_units>  (405) 
http://www.openphacts.org/units/Nanomolar

>  <target_tax_id>  (405) 
9606

>  <bao_label>  (405) 
cell-based format

>  <published_units>  (405) 
nM

>  <pchembl_value>  (405) 
7.38

>  <published_type>  (405) 
IC50

>  <activity_comment>  (405) 
None

$$$$

     RDKit          

 27 30  0  0  0  0  0  0  0  0999 V2000
    0.0000    0.0000    0.0000 C   0  0  0  0  0  0  0  0  0  0  0  0
    0.0000    0.0000    0.0000 C   0  0  0  0  0  0  0  0  0  0  0  0
    0.0000    0.0000    0.0000 C   0  0  0  0  0  0  0  0  0  0  0  0
    0.0000    0.0000    0.0000 N   0  0  0  0  0  0  0  0  0  0  0  0
    0.0000    0.0000    0.0000 C   0  0  0  0  0  0  0  0  0  0  0  0
    0.0000    0.0000    0.0000 C   0  0  0  0  0  0  0  0  0  0  0  0
    0.0000    0.0000    0.0000 N   0  0  0  0  0  0  0  0  0  0  0  0
    0.0000    0.0000    0.0000 C   0  0  0  0  0  0  0  0  0  0  0  0
    0.0000    0.0000    0.0000 C   0  0  0  0  0  0  0  0  0  0  0  0
    0.0000    0.0000    0.0000 C   0  0  0  0  0  0  0  0  0  0  0  0
    0.0000    0.0000    0.0000 C   0  0  0  0  0  0  0  0  0  0  0  0
    0.0000    0.0000    0.0000 C   0  0  0  0  0  0  0  0  0  0  0  0
    0.0000    0.0000    0.0000 C   0  0  0  0  0  0  0  0  0  0  0  0
    0.0000    0.0000    0.0000 Cl  0  0  0  0  0  0  0  0  0  0  0  0
    0.0000    0.0000    0.0000 C   0  0  0  0  0  0  0  0  0  0  0  0
    0.0000    0.0000    0.0000 C   0  0  0  0  0  0  0  0  0  0  0  0
    0.0000    0.0000    0.0000 C   0  0  0  0  0  0  0  0  0  0  0  0
    0.0000    0.0000    0.0000 C   0  0  0  0  0  0  0  0  0  0  0  0
    0.0000    0.0000    0.0000 C   0  0  0  0  0  0  0  0  0  0  0  0
    0.0000    0.0000    0.0000 C   0  0  0  0  0  0  0  0  0  0  0  0
    0.0000    0.0000    0.0000 C   0  0  0  0  0  0  0  0  0  0  0  0
    0.0000    0.0000    0.0000 C   0  0  0  0  0  0  0  0  0  0  0  0
    0.0000    0.0000    0.0000 C   0  0  0  0  0  0  0  0  0  0  0  0
    0.0000    0.0000    0.0000 C   0  0  0  0  0  0  0  0  0  0  0  0
    0.0000    0.0000    0.0000 C   0  0  0  0  0  0  0  0  0  0  0  0
    0.0000    0.0000    0.0000 O   0  0  0  0  0  0  0  0  0  0  0  0
    0.0000    0.0000    0.0000 C   0  0  0  0  0  0  0  0  0  0  0  0
  1  2  1  0
  2  3  1  0
  3  4  1  0
  4  5  1  0
  5  6  1  0
  6  7  1  0
  7  8  1  0
  8  9  1  0
  9 10  2  0
 10 11  1  0
 11 12  2  0
 12 13  1  0
 13 14  1  0
 13 15  2  0
  7 16  1  0
 16 17  1  0
 17 18  1  0
 18 19  1  0
 19 20  1  0
 19 21  1  0
 21 22  2  0
 22 23  1  0
 23 24  2  0
 24 25  1  0
 25 26  1  0
 25 27  2  0
 19  2  1  0
 17  4  1  0
 15  9  1  0
 27 21  1  0
M  END
>  <pIC50>  (406) 
8.75

>  <ChEMBL_ID>  (406) 
CHEMBL373641

>  <document_journal>  (406) 
J. Med. Chem.

>  <bao_endpoint>  (406) 
BAO_0000190

>  <potential_duplicate>  (406) 
False

>  <uo_units>  (406) 
UO_0000065

>  <canonical_smiles>  (406) 
C[C@H]1CN2CCN(Cc3cccc(Cl)c3)C[C@H]2C[C@@]1(C)c4cccc(O)c4

>  <parent_molecule_chembl_id>  (406) 
CHEMBL373641

>  <assay_type>  (406) 
F

>  <src_id>  (406) 
1

>  <ligand_efficiency>  (406) 
None

>  <standard_flag>  (406) 
True

>  <molecule_chembl_id>  (406) 
CHEMBL373641

>  <target_organism>  (406) 
Homo sapiens

>  <standard_units>  (406) 
nM

>  <record_id>  (406) 
619670

>  <document_chembl_id>  (406) 
CHEMBL1137297

>  <bao_format>  (406) 
BAO_0000219

>  <data_validity_description>  (406) 
None

>  <activity_id>  (406) 
1795620

>  <standard_type>  (406) 
IC50

>  <target_chembl_id>  (406) 
CHEMBL233

>  <data_validity_comment>  (406) 
None

>  <published_value>  (406) 
1.8

>  <document_year>  (406) 
2006

>  <target_pref_name>  (406) 
Mu opioid receptor

>  <assay_chembl_id>  (406) 
CHEMBL909298

>  <standard_relation>  (406) 
=

>  <assay_description>  (406) 
Antagonist activity assessed as inhibition of loperamide-stimulated [35S]GTPgammaS binding to human mu opioid receptor expressed in CHO cells

>  <published_relation>  (406) 
=

>  <standard_value>  (406) 
1.8

>  <qudt_units>  (406) 
http://www.openphacts.org/units/Nanomolar

>  <target_tax_id>  (406) 
9606

>  <bao_label>  (406) 
cell-based format

>  <published_units>  (406) 
nM

>  <pchembl_value>  (406) 
8.75

>  <published_type>  (406) 
IC50

>  <activity_comment>  (406) 
None

$$$$

     RDKit          

 27 30  0  0  0  0  0  0  0  0999 V2000
    0.0000    0.0000    0.0000 C   0  0  0  0  0  0  0  0  0  0  0  0
    0.0000    0.0000    0.0000 C   0  0  0  0  0  0  0  0  0  0  0  0
    0.0000    0.0000    0.0000 C   0  0  0  0  0  0  0  0  0  0  0  0
    0.0000    0.0000    0.0000 N   0  0  0  0  0  0  0  0  0  0  0  0
    0.0000    0.0000    0.0000 C   0  0  0  0  0  0  0  0  0  0  0  0
    0.0000    0.0000    0.0000 C   0  0  0  0  0  0  0  0  0  0  0  0
    0.0000    0.0000    0.0000 N   0  0  0  0  0  0  0  0  0  0  0  0
    0.0000    0.0000    0.0000 C   0  0  0  0  0  0  0  0  0  0  0  0
    0.0000    0.0000    0.0000 C   0  0  0  0  0  0  0  0  0  0  0  0
    0.0000    0.0000    0.0000 C   0  0  0  0  0  0  0  0  0  0  0  0
    0.0000    0.0000    0.0000 C   0  0  0  0  0  0  0  0  0  0  0  0
    0.0000    0.0000    0.0000 C   0  0  0  0  0  0  0  0  0  0  0  0
    0.0000    0.0000    0.0000 C   0  0  0  0  0  0  0  0  0  0  0  0
    0.0000    0.0000    0.0000 C   0  0  0  0  0  0  0  0  0  0  0  0
    0.0000    0.0000    0.0000 Cl  0  0  0  0  0  0  0  0  0  0  0  0
    0.0000    0.0000    0.0000 C   0  0  0  0  0  0  0  0  0  0  0  0
    0.0000    0.0000    0.0000 C   0  0  0  0  0  0  0  0  0  0  0  0
    0.0000    0.0000    0.0000 C   0  0  0  0  0  0  0  0  0  0  0  0
    0.0000    0.0000    0.0000 C   0  0  0  0  0  0  0  0  0  0  0  0
    0.0000    0.0000    0.0000 C   0  0  0  0  0  0  0  0  0  0  0  0
    0.0000    0.0000    0.0000 C   0  0  0  0  0  0  0  0  0  0  0  0
    0.0000    0.0000    0.0000 C   0  0  0  0  0  0  0  0  0  0  0  0
    0.0000    0.0000    0.0000 C   0  0  0  0  0  0  0  0  0  0  0  0
    0.0000    0.0000    0.0000 C   0  0  0  0  0  0  0  0  0  0  0  0
    0.0000    0.0000    0.0000 C   0  0  0  0  0  0  0  0  0  0  0  0
    0.0000    0.0000    0.0000 O   0  0  0  0  0  0  0  0  0  0  0  0
    0.0000    0.0000    0.0000 C   0  0  0  0  0  0  0  0  0  0  0  0
  1  2  1  0
  2  3  1  0
  3  4  1  0
  4  5  1  0
  5  6  1  0
  6  7  1  0
  7  8  1  0
  8  9  1  0
  9 10  2  0
 10 11  1  0
 11 12  2  0
 12 13  1  0
 13 14  2  0
 14 15  1  0
  7 16  1  0
 16 17  1  0
 17 18  1  0
 18 19  1  0
 19 20  1  0
 19 21  1  0
 21 22  2  0
 22 23  1  0
 23 24  2  0
 24 25  1  0
 25 26  1  0
 25 27  2  0
 19  2  1  0
 17  4  1  0
 14  9  1  0
 27 21  1  0
M  END
>  <pIC50>  (407) 
8.75

>  <ChEMBL_ID>  (407) 
CHEMBL219318

>  <document_journal>  (407) 
J. Med. Chem.

>  <bao_endpoint>  (407) 
BAO_0000190

>  <potential_duplicate>  (407) 
False

>  <uo_units>  (407) 
UO_0000065

>  <canonical_smiles>  (407) 
C[C@H]1CN2CCN(Cc3ccccc3Cl)C[C@H]2C[C@@]1(C)c4cccc(O)c4

>  <parent_molecule_chembl_id>  (407) 
CHEMBL219318

>  <assay_type>  (407) 
F

>  <src_id>  (407) 
1

>  <ligand_efficiency>  (407) 
None

>  <standard_flag>  (407) 
True

>  <molecule_chembl_id>  (407) 
CHEMBL219318

>  <target_organism>  (407) 
Homo sapiens

>  <standard_units>  (407) 
nM

>  <record_id>  (407) 
619669

>  <document_chembl_id>  (407) 
CHEMBL1137297

>  <bao_format>  (407) 
BAO_0000219

>  <data_validity_description>  (407) 
None

>  <activity_id>  (407) 
1795621

>  <standard_type>  (407) 
IC50

>  <target_chembl_id>  (407) 
CHEMBL233

>  <data_validity_comment>  (407) 
None

>  <published_value>  (407) 
1.8

>  <document_year>  (407) 
2006

>  <target_pref_name>  (407) 
Mu opioid receptor

>  <assay_chembl_id>  (407) 
CHEMBL909298

>  <standard_relation>  (407) 
=

>  <assay_description>  (407) 
Antagonist activity assessed as inhibition of loperamide-stimulated [35S]GTPgammaS binding to human mu opioid receptor expressed in CHO cells

>  <published_relation>  (407) 
=

>  <standard_value>  (407) 
1.8

>  <qudt_units>  (407) 
http://www.openphacts.org/units/Nanomolar

>  <target_tax_id>  (407) 
9606

>  <bao_label>  (407) 
cell-based format

>  <published_units>  (407) 
nM

>  <pchembl_value>  (407) 
8.75

>  <published_type>  (407) 
IC50

>  <activity_comment>  (407) 
None

$$$$

     RDKit          

 27 30  0  0  0  0  0  0  0  0999 V2000
    0.0000    0.0000    0.0000 C   0  0  0  0  0  0  0  0  0  0  0  0
    0.0000    0.0000    0.0000 C   0  0  0  0  0  0  0  0  0  0  0  0
    0.0000    0.0000    0.0000 C   0  0  0  0  0  0  0  0  0  0  0  0
    0.0000    0.0000    0.0000 N   0  0  0  0  0  0  0  0  0  0  0  0
    0.0000    0.0000    0.0000 C   0  0  0  0  0  0  0  0  0  0  0  0
    0.0000    0.0000    0.0000 C   0  0  0  0  0  0  0  0  0  0  0  0
    0.0000    0.0000    0.0000 N   0  0  0  0  0  0  0  0  0  0  0  0
    0.0000    0.0000    0.0000 C   0  0  0  0  0  0  0  0  0  0  0  0
    0.0000    0.0000    0.0000 C   0  0  0  0  0  0  0  0  0  0  0  0
    0.0000    0.0000    0.0000 C   0  0  0  0  0  0  0  0  0  0  0  0
    0.0000    0.0000    0.0000 C   0  0  0  0  0  0  0  0  0  0  0  0
    0.0000    0.0000    0.0000 C   0  0  0  0  0  0  0  0  0  0  0  0
    0.0000    0.0000    0.0000 C   0  0  0  0  0  0  0  0  0  0  0  0
    0.0000    0.0000    0.0000 C   0  0  0  0  0  0  0  0  0  0  0  0
    0.0000    0.0000    0.0000 C   0  0  0  0  0  0  0  0  0  0  0  0
    0.0000    0.0000    0.0000 C   0  0  0  0  0  0  0  0  0  0  0  0
    0.0000    0.0000    0.0000 C   0  0  0  0  0  0  0  0  0  0  0  0
    0.0000    0.0000    0.0000 C   0  0  0  0  0  0  0  0  0  0  0  0
    0.0000    0.0000    0.0000 C   0  0  0  0  0  0  0  0  0  0  0  0
    0.0000    0.0000    0.0000 C   0  0  0  0  0  0  0  0  0  0  0  0
    0.0000    0.0000    0.0000 C   0  0  0  0  0  0  0  0  0  0  0  0
    0.0000    0.0000    0.0000 C   0  0  0  0  0  0  0  0  0  0  0  0
    0.0000    0.0000    0.0000 C   0  0  0  0  0  0  0  0  0  0  0  0
    0.0000    0.0000    0.0000 C   0  0  0  0  0  0  0  0  0  0  0  0
    0.0000    0.0000    0.0000 C   0  0  0  0  0  0  0  0  0  0  0  0
    0.0000    0.0000    0.0000 O   0  0  0  0  0  0  0  0  0  0  0  0
    0.0000    0.0000    0.0000 C   0  0  0  0  0  0  0  0  0  0  0  0
  1  2  1  0
  2  3  1  0
  3  4  1  0
  4  5  1  0
  5  6  1  0
  6  7  1  0
  7  8  1  0
  8  9  1  0
  9 10  2  0
 10 11  1  0
 11 12  2  0
 12 13  1  0
 12 14  1  0
 14 15  2  0
  7 16  1  0
 16 17  1  0
 17 18  1  0
 18 19  1  0
 19 20  1  0
 19 21  1  0
 21 22  2  0
 22 23  1  0
 23 24  2  0
 24 25  1  0
 25 26  1  0
 25 27  2  0
 19  2  1  0
 17  4  1  0
 15  9  1  0
 27 21  1  0
M  END
>  <pIC50>  (408) 
8.02

>  <ChEMBL_ID>  (408) 
CHEMBL217999

>  <document_journal>  (408) 
J. Med. Chem.

>  <bao_endpoint>  (408) 
BAO_0000190

>  <potential_duplicate>  (408) 
False

>  <uo_units>  (408) 
UO_0000065

>  <canonical_smiles>  (408) 
C[C@H]1CN2CCN(Cc3ccc(C)cc3)C[C@H]2C[C@@]1(C)c4cccc(O)c4

>  <parent_molecule_chembl_id>  (408) 
CHEMBL217999

>  <assay_type>  (408) 
F

>  <src_id>  (408) 
1

>  <ligand_efficiency>  (408) 
None

>  <standard_flag>  (408) 
True

>  <molecule_chembl_id>  (408) 
CHEMBL217999

>  <target_organism>  (408) 
Homo sapiens

>  <standard_units>  (408) 
nM

>  <record_id>  (408) 
619668

>  <document_chembl_id>  (408) 
CHEMBL1137297

>  <bao_format>  (408) 
BAO_0000219

>  <data_validity_description>  (408) 
None

>  <activity_id>  (408) 
1795622

>  <standard_type>  (408) 
IC50

>  <target_chembl_id>  (408) 
CHEMBL233

>  <data_validity_comment>  (408) 
None

>  <published_value>  (408) 
9.5

>  <document_year>  (408) 
2006

>  <target_pref_name>  (408) 
Mu opioid receptor

>  <assay_chembl_id>  (408) 
CHEMBL909298

>  <standard_relation>  (408) 
=

>  <assay_description>  (408) 
Antagonist activity assessed as inhibition of loperamide-stimulated [35S]GTPgammaS binding to human mu opioid receptor expressed in CHO cells

>  <published_relation>  (408) 
=

>  <standard_value>  (408) 
9.5

>  <qudt_units>  (408) 
http://www.openphacts.org/units/Nanomolar

>  <target_tax_id>  (408) 
9606

>  <bao_label>  (408) 
cell-based format

>  <published_units>  (408) 
nM

>  <pchembl_value>  (408) 
8.02

>  <published_type>  (408) 
IC50

>  <activity_comment>  (408) 
None

$$$$

     RDKit          

 27 30  0  0  0  0  0  0  0  0999 V2000
    0.0000    0.0000    0.0000 C   0  0  0  0  0  0  0  0  0  0  0  0
    0.0000    0.0000    0.0000 C   0  0  0  0  0  0  0  0  0  0  0  0
    0.0000    0.0000    0.0000 C   0  0  0  0  0  0  0  0  0  0  0  0
    0.0000    0.0000    0.0000 N   0  0  0  0  0  0  0  0  0  0  0  0
    0.0000    0.0000    0.0000 C   0  0  0  0  0  0  0  0  0  0  0  0
    0.0000    0.0000    0.0000 C   0  0  0  0  0  0  0  0  0  0  0  0
    0.0000    0.0000    0.0000 N   0  0  0  0  0  0  0  0  0  0  0  0
    0.0000    0.0000    0.0000 C   0  0  0  0  0  0  0  0  0  0  0  0
    0.0000    0.0000    0.0000 C   0  0  0  0  0  0  0  0  0  0  0  0
    0.0000    0.0000    0.0000 C   0  0  0  0  0  0  0  0  0  0  0  0
    0.0000    0.0000    0.0000 C   0  0  0  0  0  0  0  0  0  0  0  0
    0.0000    0.0000    0.0000 C   0  0  0  0  0  0  0  0  0  0  0  0
    0.0000    0.0000    0.0000 C   0  0  0  0  0  0  0  0  0  0  0  0
    0.0000    0.0000    0.0000 C   0  0  0  0  0  0  0  0  0  0  0  0
    0.0000    0.0000    0.0000 C   0  0  0  0  0  0  0  0  0  0  0  0
    0.0000    0.0000    0.0000 C   0  0  0  0  0  0  0  0  0  0  0  0
    0.0000    0.0000    0.0000 C   0  0  0  0  0  0  0  0  0  0  0  0
    0.0000    0.0000    0.0000 C   0  0  0  0  0  0  0  0  0  0  0  0
    0.0000    0.0000    0.0000 C   0  0  0  0  0  0  0  0  0  0  0  0
    0.0000    0.0000    0.0000 C   0  0  0  0  0  0  0  0  0  0  0  0
    0.0000    0.0000    0.0000 C   0  0  0  0  0  0  0  0  0  0  0  0
    0.0000    0.0000    0.0000 C   0  0  0  0  0  0  0  0  0  0  0  0
    0.0000    0.0000    0.0000 C   0  0  0  0  0  0  0  0  0  0  0  0
    0.0000    0.0000    0.0000 C   0  0  0  0  0  0  0  0  0  0  0  0
    0.0000    0.0000    0.0000 C   0  0  0  0  0  0  0  0  0  0  0  0
    0.0000    0.0000    0.0000 O   0  0  0  0  0  0  0  0  0  0  0  0
    0.0000    0.0000    0.0000 C   0  0  0  0  0  0  0  0  0  0  0  0
  1  2  1  0
  2  3  1  0
  3  4  1  0
  4  5  1  0
  5  6  1  0
  6  7  1  0
  7  8  1  0
  8  9  1  0
  9 10  2  0
 10 11  1  0
 11 12  2  0
 12 13  1  0
 13 14  1  0
 13 15  2  0
  7 16  1  0
 16 17  1  0
 17 18  1  0
 18 19  1  0
 19 20  1  0
 19 21  1  0
 21 22  2  0
 22 23  1  0
 23 24  2  0
 24 25  1  0
 25 26  1  0
 25 27  2  0
 19  2  1  0
 17  4  1  0
 15  9  1  0
 27 21  1  0
M  END
>  <pIC50>  (409) 
8.82

>  <ChEMBL_ID>  (409) 
CHEMBL217998

>  <document_journal>  (409) 
J. Med. Chem.

>  <bao_endpoint>  (409) 
BAO_0000190

>  <potential_duplicate>  (409) 
False

>  <uo_units>  (409) 
UO_0000065

>  <canonical_smiles>  (409) 
C[C@H]1CN2CCN(Cc3cccc(C)c3)C[C@H]2C[C@@]1(C)c4cccc(O)c4

>  <parent_molecule_chembl_id>  (409) 
CHEMBL217998

>  <assay_type>  (409) 
F

>  <src_id>  (409) 
1

>  <ligand_efficiency>  (409) 
None

>  <standard_flag>  (409) 
True

>  <molecule_chembl_id>  (409) 
CHEMBL217998

>  <target_organism>  (409) 
Homo sapiens

>  <standard_units>  (409) 
nM

>  <record_id>  (409) 
619667

>  <document_chembl_id>  (409) 
CHEMBL1137297

>  <bao_format>  (409) 
BAO_0000219

>  <data_validity_description>  (409) 
None

>  <activity_id>  (409) 
1795623

>  <standard_type>  (409) 
IC50

>  <target_chembl_id>  (409) 
CHEMBL233

>  <data_validity_comment>  (409) 
None

>  <published_value>  (409) 
1.5

>  <document_year>  (409) 
2006

>  <target_pref_name>  (409) 
Mu opioid receptor

>  <assay_chembl_id>  (409) 
CHEMBL909298

>  <standard_relation>  (409) 
=

>  <assay_description>  (409) 
Antagonist activity assessed as inhibition of loperamide-stimulated [35S]GTPgammaS binding to human mu opioid receptor expressed in CHO cells

>  <published_relation>  (409) 
=

>  <standard_value>  (409) 
1.5

>  <qudt_units>  (409) 
http://www.openphacts.org/units/Nanomolar

>  <target_tax_id>  (409) 
9606

>  <bao_label>  (409) 
cell-based format

>  <published_units>  (409) 
nM

>  <pchembl_value>  (409) 
8.82

>  <published_type>  (409) 
IC50

>  <activity_comment>  (409) 
None

$$$$

     RDKit          

 27 30  0  0  0  0  0  0  0  0999 V2000
    0.0000    0.0000    0.0000 C   0  0  0  0  0  0  0  0  0  0  0  0
    0.0000    0.0000    0.0000 C   0  0  0  0  0  0  0  0  0  0  0  0
    0.0000    0.0000    0.0000 C   0  0  0  0  0  0  0  0  0  0  0  0
    0.0000    0.0000    0.0000 N   0  0  0  0  0  0  0  0  0  0  0  0
    0.0000    0.0000    0.0000 C   0  0  0  0  0  0  0  0  0  0  0  0
    0.0000    0.0000    0.0000 C   0  0  0  0  0  0  0  0  0  0  0  0
    0.0000    0.0000    0.0000 N   0  0  0  0  0  0  0  0  0  0  0  0
    0.0000    0.0000    0.0000 C   0  0  0  0  0  0  0  0  0  0  0  0
    0.0000    0.0000    0.0000 C   0  0  0  0  0  0  0  0  0  0  0  0
    0.0000    0.0000    0.0000 C   0  0  0  0  0  0  0  0  0  0  0  0
    0.0000    0.0000    0.0000 C   0  0  0  0  0  0  0  0  0  0  0  0
    0.0000    0.0000    0.0000 C   0  0  0  0  0  0  0  0  0  0  0  0
    0.0000    0.0000    0.0000 C   0  0  0  0  0  0  0  0  0  0  0  0
    0.0000    0.0000    0.0000 C   0  0  0  0  0  0  0  0  0  0  0  0
    0.0000    0.0000    0.0000 C   0  0  0  0  0  0  0  0  0  0  0  0
    0.0000    0.0000    0.0000 C   0  0  0  0  0  0  0  0  0  0  0  0
    0.0000    0.0000    0.0000 C   0  0  0  0  0  0  0  0  0  0  0  0
    0.0000    0.0000    0.0000 C   0  0  0  0  0  0  0  0  0  0  0  0
    0.0000    0.0000    0.0000 C   0  0  0  0  0  0  0  0  0  0  0  0
    0.0000    0.0000    0.0000 C   0  0  0  0  0  0  0  0  0  0  0  0
    0.0000    0.0000    0.0000 C   0  0  0  0  0  0  0  0  0  0  0  0
    0.0000    0.0000    0.0000 C   0  0  0  0  0  0  0  0  0  0  0  0
    0.0000    0.0000    0.0000 C   0  0  0  0  0  0  0  0  0  0  0  0
    0.0000    0.0000    0.0000 C   0  0  0  0  0  0  0  0  0  0  0  0
    0.0000    0.0000    0.0000 C   0  0  0  0  0  0  0  0  0  0  0  0
    0.0000    0.0000    0.0000 O   0  0  0  0  0  0  0  0  0  0  0  0
    0.0000    0.0000    0.0000 C   0  0  0  0  0  0  0  0  0  0  0  0
  1  2  1  0
  2  3  1  0
  3  4  1  0
  4  5  1  0
  5  6  1  0
  6  7  1  0
  7  8  1  0
  8  9  1  0
  9 10  2  0
 10 11  1  0
 11 12  2  0
 12 13  1  0
 13 14  2  0
 14 15  1  0
  7 16  1  0
 16 17  1  0
 17 18  1  0
 18 19  1  0
 19 20  1  0
 19 21  1  0
 21 22  2  0
 22 23  1  0
 23 24  2  0
 24 25  1  0
 25 26  1  0
 25 27  2  0
 19  2  1  0
 17  4  1  0
 14  9  1  0
 27 21  1  0
M  END
>  <pIC50>  (410) 
8.75

>  <ChEMBL_ID>  (410) 
CHEMBL219599

>  <document_journal>  (410) 
J. Med. Chem.

>  <bao_endpoint>  (410) 
BAO_0000190

>  <potential_duplicate>  (410) 
False

>  <uo_units>  (410) 
UO_0000065

>  <canonical_smiles>  (410) 
C[C@H]1CN2CCN(Cc3ccccc3C)C[C@H]2C[C@@]1(C)c4cccc(O)c4

>  <parent_molecule_chembl_id>  (410) 
CHEMBL219599

>  <assay_type>  (410) 
F

>  <src_id>  (410) 
1

>  <ligand_efficiency>  (410) 
None

>  <standard_flag>  (410) 
True

>  <molecule_chembl_id>  (410) 
CHEMBL219599

>  <target_organism>  (410) 
Homo sapiens

>  <standard_units>  (410) 
nM

>  <record_id>  (410) 
619666

>  <document_chembl_id>  (410) 
CHEMBL1137297

>  <bao_format>  (410) 
BAO_0000219

>  <data_validity_description>  (410) 
None

>  <activity_id>  (410) 
1795624

>  <standard_type>  (410) 
IC50

>  <target_chembl_id>  (410) 
CHEMBL233

>  <data_validity_comment>  (410) 
None

>  <published_value>  (410) 
1.8

>  <document_year>  (410) 
2006

>  <target_pref_name>  (410) 
Mu opioid receptor

>  <assay_chembl_id>  (410) 
CHEMBL909298

>  <standard_relation>  (410) 
=

>  <assay_description>  (410) 
Antagonist activity assessed as inhibition of loperamide-stimulated [35S]GTPgammaS binding to human mu opioid receptor expressed in CHO cells

>  <published_relation>  (410) 
=

>  <standard_value>  (410) 
1.8

>  <qudt_units>  (410) 
http://www.openphacts.org/units/Nanomolar

>  <target_tax_id>  (410) 
9606

>  <bao_label>  (410) 
cell-based format

>  <published_units>  (410) 
nM

>  <pchembl_value>  (410) 
8.75

>  <published_type>  (410) 
IC50

>  <activity_comment>  (410) 
None

$$$$

     RDKit          

 25 28  0  0  0  0  0  0  0  0999 V2000
    0.0000    0.0000    0.0000 C   0  0  0  0  0  0  0  0  0  0  0  0
    0.0000    0.0000    0.0000 C   0  0  0  0  0  0  0  0  0  0  0  0
    0.0000    0.0000    0.0000 C   0  0  0  0  0  0  0  0  0  0  0  0
    0.0000    0.0000    0.0000 N   0  0  0  0  0  0  0  0  0  0  0  0
    0.0000    0.0000    0.0000 C   0  0  0  0  0  0  0  0  0  0  0  0
    0.0000    0.0000    0.0000 C   0  0  0  0  0  0  0  0  0  0  0  0
    0.0000    0.0000    0.0000 N   0  0  0  0  0  0  0  0  0  0  0  0
    0.0000    0.0000    0.0000 C   0  0  0  0  0  0  0  0  0  0  0  0
    0.0000    0.0000    0.0000 C   0  0  0  0  0  0  0  0  0  0  0  0
    0.0000    0.0000    0.0000 C   0  0  0  0  0  0  0  0  0  0  0  0
    0.0000    0.0000    0.0000 C   0  0  0  0  0  0  0  0  0  0  0  0
    0.0000    0.0000    0.0000 S   0  0  0  0  0  0  0  0  0  0  0  0
    0.0000    0.0000    0.0000 C   0  0  0  0  0  0  0  0  0  0  0  0
    0.0000    0.0000    0.0000 C   0  0  0  0  0  0  0  0  0  0  0  0
    0.0000    0.0000    0.0000 C   0  0  0  0  0  0  0  0  0  0  0  0
    0.0000    0.0000    0.0000 C   0  0  0  0  0  0  0  0  0  0  0  0
    0.0000    0.0000    0.0000 C   0  0  0  0  0  0  0  0  0  0  0  0
    0.0000    0.0000    0.0000 C   0  0  0  0  0  0  0  0  0  0  0  0
    0.0000    0.0000    0.0000 C   0  0  0  0  0  0  0  0  0  0  0  0
    0.0000    0.0000    0.0000 C   0  0  0  0  0  0  0  0  0  0  0  0
    0.0000    0.0000    0.0000 C   0  0  0  0  0  0  0  0  0  0  0  0
    0.0000    0.0000    0.0000 C   0  0  0  0  0  0  0  0  0  0  0  0
    0.0000    0.0000    0.0000 C   0  0  0  0  0  0  0  0  0  0  0  0
    0.0000    0.0000    0.0000 O   0  0  0  0  0  0  0  0  0  0  0  0
    0.0000    0.0000    0.0000 C   0  0  0  0  0  0  0  0  0  0  0  0
  1  2  1  0
  2  3  1  0
  3  4  1  0
  4  5  1  0
  5  6  1  0
  6  7  1  0
  7  8  1  0
  8  9  1  0
  9 10  1  0
 10 11  2  0
 11 12  1  0
 12 13  1  0
  7 14  1  0
 14 15  1  0
 15 16  1  0
 16 17  1  0
 17 18  1  0
 17 19  1  0
 19 20  2  0
 20 21  1  0
 21 22  2  0
 22 23  1  0
 23 24  1  0
 23 25  2  0
 17  2  1  0
 15  4  1  0
 13  9  2  0
 25 19  1  0
M  END
>  <pIC50>  (411) 
8.85

>  <ChEMBL_ID>  (411) 
CHEMBL219554

>  <document_journal>  (411) 
J. Med. Chem.

>  <bao_endpoint>  (411) 
BAO_0000190

>  <potential_duplicate>  (411) 
False

>  <uo_units>  (411) 
UO_0000065

>  <canonical_smiles>  (411) 
C[C@H]1CN2CCN(Cc3ccsc3)C[C@H]2C[C@@]1(C)c4cccc(O)c4

>  <parent_molecule_chembl_id>  (411) 
CHEMBL219554

>  <assay_type>  (411) 
F

>  <src_id>  (411) 
1

>  <ligand_efficiency>  (411) 
None

>  <standard_flag>  (411) 
True

>  <molecule_chembl_id>  (411) 
CHEMBL219554

>  <target_organism>  (411) 
Homo sapiens

>  <standard_units>  (411) 
nM

>  <record_id>  (411) 
619688

>  <document_chembl_id>  (411) 
CHEMBL1137297

>  <bao_format>  (411) 
BAO_0000219

>  <data_validity_description>  (411) 
None

>  <activity_id>  (411) 
1795689

>  <standard_type>  (411) 
IC50

>  <target_chembl_id>  (411) 
CHEMBL233

>  <data_validity_comment>  (411) 
None

>  <published_value>  (411) 
1.4

>  <document_year>  (411) 
2006

>  <target_pref_name>  (411) 
Mu opioid receptor

>  <assay_chembl_id>  (411) 
CHEMBL909298

>  <standard_relation>  (411) 
=

>  <assay_description>  (411) 
Antagonist activity assessed as inhibition of loperamide-stimulated [35S]GTPgammaS binding to human mu opioid receptor expressed in CHO cells

>  <published_relation>  (411) 
=

>  <standard_value>  (411) 
1.4

>  <qudt_units>  (411) 
http://www.openphacts.org/units/Nanomolar

>  <target_tax_id>  (411) 
9606

>  <bao_label>  (411) 
cell-based format

>  <published_units>  (411) 
nM

>  <pchembl_value>  (411) 
8.85

>  <published_type>  (411) 
IC50

>  <activity_comment>  (411) 
None

$$$$

     RDKit          

 25 28  0  0  0  0  0  0  0  0999 V2000
    0.0000    0.0000    0.0000 C   0  0  0  0  0  0  0  0  0  0  0  0
    0.0000    0.0000    0.0000 C   0  0  0  0  0  0  0  0  0  0  0  0
    0.0000    0.0000    0.0000 C   0  0  0  0  0  0  0  0  0  0  0  0
    0.0000    0.0000    0.0000 N   0  0  0  0  0  0  0  0  0  0  0  0
    0.0000    0.0000    0.0000 C   0  0  0  0  0  0  0  0  0  0  0  0
    0.0000    0.0000    0.0000 C   0  0  0  0  0  0  0  0  0  0  0  0
    0.0000    0.0000    0.0000 N   0  0  0  0  0  0  0  0  0  0  0  0
    0.0000    0.0000    0.0000 C   0  0  0  0  0  0  0  0  0  0  0  0
    0.0000    0.0000    0.0000 C   0  0  0  0  0  0  0  0  0  0  0  0
    0.0000    0.0000    0.0000 C   0  0  0  0  0  0  0  0  0  0  0  0
    0.0000    0.0000    0.0000 C   0  0  0  0  0  0  0  0  0  0  0  0
    0.0000    0.0000    0.0000 C   0  0  0  0  0  0  0  0  0  0  0  0
    0.0000    0.0000    0.0000 S   0  0  0  0  0  0  0  0  0  0  0  0
    0.0000    0.0000    0.0000 C   0  0  0  0  0  0  0  0  0  0  0  0
    0.0000    0.0000    0.0000 C   0  0  0  0  0  0  0  0  0  0  0  0
    0.0000    0.0000    0.0000 C   0  0  0  0  0  0  0  0  0  0  0  0
    0.0000    0.0000    0.0000 C   0  0  0  0  0  0  0  0  0  0  0  0
    0.0000    0.0000    0.0000 C   0  0  0  0  0  0  0  0  0  0  0  0
    0.0000    0.0000    0.0000 C   0  0  0  0  0  0  0  0  0  0  0  0
    0.0000    0.0000    0.0000 C   0  0  0  0  0  0  0  0  0  0  0  0
    0.0000    0.0000    0.0000 C   0  0  0  0  0  0  0  0  0  0  0  0
    0.0000    0.0000    0.0000 C   0  0  0  0  0  0  0  0  0  0  0  0
    0.0000    0.0000    0.0000 C   0  0  0  0  0  0  0  0  0  0  0  0
    0.0000    0.0000    0.0000 O   0  0  0  0  0  0  0  0  0  0  0  0
    0.0000    0.0000    0.0000 C   0  0  0  0  0  0  0  0  0  0  0  0
  1  2  1  0
  2  3  1  0
  3  4  1  0
  4  5  1  0
  5  6  1  0
  6  7  1  0
  7  8  1  0
  8  9  1  0
  9 10  2  0
 10 11  1  0
 11 12  2  0
 12 13  1  0
  7 14  1  0
 14 15  1  0
 15 16  1  0
 16 17  1  0
 17 18  1  0
 17 19  1  0
 19 20  2  0
 20 21  1  0
 21 22  2  0
 22 23  1  0
 23 24  1  0
 23 25  2  0
 17  2  1  0
 15  4  1  0
 13  9  1  0
 25 19  1  0
M  END
>  <pIC50>  (412) 
9.2

>  <ChEMBL_ID>  (412) 
CHEMBL373446

>  <document_journal>  (412) 
J. Med. Chem.

>  <bao_endpoint>  (412) 
BAO_0000190

>  <potential_duplicate>  (412) 
False

>  <uo_units>  (412) 
UO_0000065

>  <canonical_smiles>  (412) 
C[C@H]1CN2CCN(Cc3cccs3)C[C@H]2C[C@@]1(C)c4cccc(O)c4

>  <parent_molecule_chembl_id>  (412) 
CHEMBL373446

>  <assay_type>  (412) 
F

>  <src_id>  (412) 
1

>  <ligand_efficiency>  (412) 
None

>  <standard_flag>  (412) 
True

>  <molecule_chembl_id>  (412) 
CHEMBL373446

>  <target_organism>  (412) 
Homo sapiens

>  <standard_units>  (412) 
nM

>  <record_id>  (412) 
619687

>  <document_chembl_id>  (412) 
CHEMBL1137297

>  <bao_format>  (412) 
BAO_0000219

>  <data_validity_description>  (412) 
None

>  <activity_id>  (412) 
1795690

>  <standard_type>  (412) 
IC50

>  <target_chembl_id>  (412) 
CHEMBL233

>  <data_validity_comment>  (412) 
None

>  <published_value>  (412) 
0.63

>  <document_year>  (412) 
2006

>  <target_pref_name>  (412) 
Mu opioid receptor

>  <assay_chembl_id>  (412) 
CHEMBL909298

>  <standard_relation>  (412) 
=

>  <assay_description>  (412) 
Antagonist activity assessed as inhibition of loperamide-stimulated [35S]GTPgammaS binding to human mu opioid receptor expressed in CHO cells

>  <published_relation>  (412) 
=

>  <standard_value>  (412) 
0.63

>  <qudt_units>  (412) 
http://www.openphacts.org/units/Nanomolar

>  <target_tax_id>  (412) 
9606

>  <bao_label>  (412) 
cell-based format

>  <published_units>  (412) 
nM

>  <pchembl_value>  (412) 
9.2

>  <published_type>  (412) 
IC50

>  <activity_comment>  (412) 
None

$$$$

     RDKit          

 25 28  0  0  0  0  0  0  0  0999 V2000
    0.0000    0.0000    0.0000 C   0  0  0  0  0  0  0  0  0  0  0  0
    0.0000    0.0000    0.0000 C   0  0  0  0  0  0  0  0  0  0  0  0
    0.0000    0.0000    0.0000 C   0  0  0  0  0  0  0  0  0  0  0  0
    0.0000    0.0000    0.0000 N   0  0  0  0  0  0  0  0  0  0  0  0
    0.0000    0.0000    0.0000 C   0  0  0  0  0  0  0  0  0  0  0  0
    0.0000    0.0000    0.0000 C   0  0  0  0  0  0  0  0  0  0  0  0
    0.0000    0.0000    0.0000 N   0  0  0  0  0  0  0  0  0  0  0  0
    0.0000    0.0000    0.0000 C   0  0  0  0  0  0  0  0  0  0  0  0
    0.0000    0.0000    0.0000 C   0  0  0  0  0  0  0  0  0  0  0  0
    0.0000    0.0000    0.0000 C   0  0  0  0  0  0  0  0  0  0  0  0
    0.0000    0.0000    0.0000 O   0  0  0  0  0  0  0  0  0  0  0  0
    0.0000    0.0000    0.0000 C   0  0  0  0  0  0  0  0  0  0  0  0
    0.0000    0.0000    0.0000 C   0  0  0  0  0  0  0  0  0  0  0  0
    0.0000    0.0000    0.0000 C   0  0  0  0  0  0  0  0  0  0  0  0
    0.0000    0.0000    0.0000 C   0  0  0  0  0  0  0  0  0  0  0  0
    0.0000    0.0000    0.0000 C   0  0  0  0  0  0  0  0  0  0  0  0
    0.0000    0.0000    0.0000 C   0  0  0  0  0  0  0  0  0  0  0  0
    0.0000    0.0000    0.0000 C   0  0  0  0  0  0  0  0  0  0  0  0
    0.0000    0.0000    0.0000 C   0  0  0  0  0  0  0  0  0  0  0  0
    0.0000    0.0000    0.0000 C   0  0  0  0  0  0  0  0  0  0  0  0
    0.0000    0.0000    0.0000 C   0  0  0  0  0  0  0  0  0  0  0  0
    0.0000    0.0000    0.0000 C   0  0  0  0  0  0  0  0  0  0  0  0
    0.0000    0.0000    0.0000 C   0  0  0  0  0  0  0  0  0  0  0  0
    0.0000    0.0000    0.0000 O   0  0  0  0  0  0  0  0  0  0  0  0
    0.0000    0.0000    0.0000 C   0  0  0  0  0  0  0  0  0  0  0  0
  1  2  1  0
  2  3  1  0
  3  4  1  0
  4  5  1  0
  5  6  1  0
  6  7  1  0
  7  8  1  0
  8  9  1  0
  9 10  2  0
 10 11  1  0
 11 12  1  0
 12 13  2  0
  7 14  1  0
 14 15  1  0
 15 16  1  0
 16 17  1  0
 17 18  1  0
 17 19  1  0
 19 20  2  0
 20 21  1  0
 21 22  2  0
 22 23  1  0
 23 24  1  0
 23 25  2  0
 17  2  1  0
 15  4  1  0
 13  9  1  0
 25 19  1  0
M  END
>  <pIC50>  (413) 
8.22

>  <ChEMBL_ID>  (413) 
CHEMBL217950

>  <document_journal>  (413) 
J. Med. Chem.

>  <bao_endpoint>  (413) 
BAO_0000190

>  <potential_duplicate>  (413) 
False

>  <uo_units>  (413) 
UO_0000065

>  <canonical_smiles>  (413) 
C[C@H]1CN2CCN(Cc3cocc3)C[C@H]2C[C@@]1(C)c4cccc(O)c4

>  <parent_molecule_chembl_id>  (413) 
CHEMBL217950

>  <assay_type>  (413) 
F

>  <src_id>  (413) 
1

>  <ligand_efficiency>  (413) 
None

>  <standard_flag>  (413) 
True

>  <molecule_chembl_id>  (413) 
CHEMBL217950

>  <target_organism>  (413) 
Homo sapiens

>  <standard_units>  (413) 
nM

>  <record_id>  (413) 
619686

>  <document_chembl_id>  (413) 
CHEMBL1137297

>  <bao_format>  (413) 
BAO_0000219

>  <data_validity_description>  (413) 
None

>  <activity_id>  (413) 
1795691

>  <standard_type>  (413) 
IC50

>  <target_chembl_id>  (413) 
CHEMBL233

>  <data_validity_comment>  (413) 
None

>  <published_value>  (413) 
6.1

>  <document_year>  (413) 
2006

>  <target_pref_name>  (413) 
Mu opioid receptor

>  <assay_chembl_id>  (413) 
CHEMBL909298

>  <standard_relation>  (413) 
=

>  <assay_description>  (413) 
Antagonist activity assessed as inhibition of loperamide-stimulated [35S]GTPgammaS binding to human mu opioid receptor expressed in CHO cells

>  <published_relation>  (413) 
=

>  <standard_value>  (413) 
6.1

>  <qudt_units>  (413) 
http://www.openphacts.org/units/Nanomolar

>  <target_tax_id>  (413) 
9606

>  <bao_label>  (413) 
cell-based format

>  <published_units>  (413) 
nM

>  <pchembl_value>  (413) 
8.22

>  <published_type>  (413) 
IC50

>  <activity_comment>  (413) 
None

$$$$

     RDKit          

 25 28  0  0  0  0  0  0  0  0999 V2000
    0.0000    0.0000    0.0000 C   0  0  0  0  0  0  0  0  0  0  0  0
    0.0000    0.0000    0.0000 C   0  0  0  0  0  0  0  0  0  0  0  0
    0.0000    0.0000    0.0000 C   0  0  0  0  0  0  0  0  0  0  0  0
    0.0000    0.0000    0.0000 N   0  0  0  0  0  0  0  0  0  0  0  0
    0.0000    0.0000    0.0000 C   0  0  0  0  0  0  0  0  0  0  0  0
    0.0000    0.0000    0.0000 C   0  0  0  0  0  0  0  0  0  0  0  0
    0.0000    0.0000    0.0000 N   0  0  0  0  0  0  0  0  0  0  0  0
    0.0000    0.0000    0.0000 C   0  0  0  0  0  0  0  0  0  0  0  0
    0.0000    0.0000    0.0000 C   0  0  0  0  0  0  0  0  0  0  0  0
    0.0000    0.0000    0.0000 O   0  0  0  0  0  0  0  0  0  0  0  0
    0.0000    0.0000    0.0000 C   0  0  0  0  0  0  0  0  0  0  0  0
    0.0000    0.0000    0.0000 C   0  0  0  0  0  0  0  0  0  0  0  0
    0.0000    0.0000    0.0000 C   0  0  0  0  0  0  0  0  0  0  0  0
    0.0000    0.0000    0.0000 C   0  0  0  0  0  0  0  0  0  0  0  0
    0.0000    0.0000    0.0000 C   0  0  0  0  0  0  0  0  0  0  0  0
    0.0000    0.0000    0.0000 C   0  0  0  0  0  0  0  0  0  0  0  0
    0.0000    0.0000    0.0000 C   0  0  0  0  0  0  0  0  0  0  0  0
    0.0000    0.0000    0.0000 C   0  0  0  0  0  0  0  0  0  0  0  0
    0.0000    0.0000    0.0000 C   0  0  0  0  0  0  0  0  0  0  0  0
    0.0000    0.0000    0.0000 C   0  0  0  0  0  0  0  0  0  0  0  0
    0.0000    0.0000    0.0000 C   0  0  0  0  0  0  0  0  0  0  0  0
    0.0000    0.0000    0.0000 C   0  0  0  0  0  0  0  0  0  0  0  0
    0.0000    0.0000    0.0000 C   0  0  0  0  0  0  0  0  0  0  0  0
    0.0000    0.0000    0.0000 O   0  0  0  0  0  0  0  0  0  0  0  0
    0.0000    0.0000    0.0000 C   0  0  0  0  0  0  0  0  0  0  0  0
  1  2  1  0
  2  3  1  0
  3  4  1  0
  4  5  1  0
  5  6  1  0
  6  7  1  0
  7  8  1  0
  8  9  1  0
  9 10  1  0
 10 11  1  0
 11 12  2  0
 12 13  1  0
  7 14  1  0
 14 15  1  0
 15 16  1  0
 16 17  1  0
 17 18  1  0
 17 19  1  0
 19 20  2  0
 20 21  1  0
 21 22  2  0
 22 23  1  0
 23 24  1  0
 23 25  2  0
 17  2  1  0
 15  4  1  0
 13  9  2  0
 25 19  1  0
M  END
>  <pIC50>  (414) 
8.14

>  <ChEMBL_ID>  (414) 
CHEMBL374455

>  <document_journal>  (414) 
J. Med. Chem.

>  <bao_endpoint>  (414) 
BAO_0000190

>  <potential_duplicate>  (414) 
False

>  <uo_units>  (414) 
UO_0000065

>  <canonical_smiles>  (414) 
C[C@H]1CN2CCN(Cc3occc3)C[C@H]2C[C@@]1(C)c4cccc(O)c4

>  <parent_molecule_chembl_id>  (414) 
CHEMBL374455

>  <assay_type>  (414) 
F

>  <src_id>  (414) 
1

>  <ligand_efficiency>  (414) 
None

>  <standard_flag>  (414) 
True

>  <molecule_chembl_id>  (414) 
CHEMBL374455

>  <target_organism>  (414) 
Homo sapiens

>  <standard_units>  (414) 
nM

>  <record_id>  (414) 
619685

>  <document_chembl_id>  (414) 
CHEMBL1137297

>  <bao_format>  (414) 
BAO_0000219

>  <data_validity_description>  (414) 
None

>  <activity_id>  (414) 
1795692

>  <standard_type>  (414) 
IC50

>  <target_chembl_id>  (414) 
CHEMBL233

>  <data_validity_comment>  (414) 
None

>  <published_value>  (414) 
7.2

>  <document_year>  (414) 
2006

>  <target_pref_name>  (414) 
Mu opioid receptor

>  <assay_chembl_id>  (414) 
CHEMBL909298

>  <standard_relation>  (414) 
=

>  <assay_description>  (414) 
Antagonist activity assessed as inhibition of loperamide-stimulated [35S]GTPgammaS binding to human mu opioid receptor expressed in CHO cells

>  <published_relation>  (414) 
=

>  <standard_value>  (414) 
7.2

>  <qudt_units>  (414) 
http://www.openphacts.org/units/Nanomolar

>  <target_tax_id>  (414) 
9606

>  <bao_label>  (414) 
cell-based format

>  <published_units>  (414) 
nM

>  <pchembl_value>  (414) 
8.14

>  <published_type>  (414) 
IC50

>  <activity_comment>  (414) 
None

$$$$

     RDKit          

 26 29  0  0  0  0  0  0  0  0999 V2000
    0.0000    0.0000    0.0000 C   0  0  0  0  0  0  0  0  0  0  0  0
    0.0000    0.0000    0.0000 C   0  0  0  0  0  0  0  0  0  0  0  0
    0.0000    0.0000    0.0000 C   0  0  0  0  0  0  0  0  0  0  0  0
    0.0000    0.0000    0.0000 N   0  0  0  0  0  0  0  0  0  0  0  0
    0.0000    0.0000    0.0000 C   0  0  0  0  0  0  0  0  0  0  0  0
    0.0000    0.0000    0.0000 C   0  0  0  0  0  0  0  0  0  0  0  0
    0.0000    0.0000    0.0000 N   0  0  0  0  0  0  0  0  0  0  0  0
    0.0000    0.0000    0.0000 C   0  0  0  0  0  0  0  0  0  0  0  0
    0.0000    0.0000    0.0000 C   0  0  0  0  0  0  0  0  0  0  0  0
    0.0000    0.0000    0.0000 C   0  0  0  0  0  0  0  0  0  0  0  0
    0.0000    0.0000    0.0000 C   0  0  0  0  0  0  0  0  0  0  0  0
    0.0000    0.0000    0.0000 N   0  0  0  0  0  0  0  0  0  0  0  0
    0.0000    0.0000    0.0000 C   0  0  0  0  0  0  0  0  0  0  0  0
    0.0000    0.0000    0.0000 C   0  0  0  0  0  0  0  0  0  0  0  0
    0.0000    0.0000    0.0000 C   0  0  0  0  0  0  0  0  0  0  0  0
    0.0000    0.0000    0.0000 C   0  0  0  0  0  0  0  0  0  0  0  0
    0.0000    0.0000    0.0000 C   0  0  0  0  0  0  0  0  0  0  0  0
    0.0000    0.0000    0.0000 C   0  0  0  0  0  0  0  0  0  0  0  0
    0.0000    0.0000    0.0000 C   0  0  0  0  0  0  0  0  0  0  0  0
    0.0000    0.0000    0.0000 C   0  0  0  0  0  0  0  0  0  0  0  0
    0.0000    0.0000    0.0000 C   0  0  0  0  0  0  0  0  0  0  0  0
    0.0000    0.0000    0.0000 C   0  0  0  0  0  0  0  0  0  0  0  0
    0.0000    0.0000    0.0000 C   0  0  0  0  0  0  0  0  0  0  0  0
    0.0000    0.0000    0.0000 C   0  0  0  0  0  0  0  0  0  0  0  0
    0.0000    0.0000    0.0000 O   0  0  0  0  0  0  0  0  0  0  0  0
    0.0000    0.0000    0.0000 C   0  0  0  0  0  0  0  0  0  0  0  0
  1  2  1  0
  2  3  1  0
  3  4  1  0
  4  5  1  0
  5  6  1  0
  6  7  1  0
  7  8  1  0
  8  9  1  0
  9 10  2  0
 10 11  1  0
 11 12  2  0
 12 13  1  0
 13 14  2  0
  7 15  1  0
 15 16  1  0
 16 17  1  0
 17 18  1  0
 18 19  1  0
 18 20  1  0
 20 21  2  0
 21 22  1  0
 22 23  2  0
 23 24  1  0
 24 25  1  0
 24 26  2  0
 18  2  1  0
 16  4  1  0
 14  9  1  0
 26 20  1  0
M  END
>  <pIC50>  (415) 
7.75

>  <ChEMBL_ID>  (415) 
CHEMBL219152

>  <document_journal>  (415) 
J. Med. Chem.

>  <bao_endpoint>  (415) 
BAO_0000190

>  <potential_duplicate>  (415) 
False

>  <uo_units>  (415) 
UO_0000065

>  <canonical_smiles>  (415) 
C[C@H]1CN2CCN(Cc3ccncc3)C[C@H]2C[C@@]1(C)c4cccc(O)c4

>  <parent_molecule_chembl_id>  (415) 
CHEMBL219152

>  <assay_type>  (415) 
F

>  <src_id>  (415) 
1

>  <ligand_efficiency>  (415) 
None

>  <standard_flag>  (415) 
True

>  <molecule_chembl_id>  (415) 
CHEMBL219152

>  <target_organism>  (415) 
Homo sapiens

>  <standard_units>  (415) 
nM

>  <record_id>  (415) 
619684

>  <document_chembl_id>  (415) 
CHEMBL1137297

>  <bao_format>  (415) 
BAO_0000219

>  <data_validity_description>  (415) 
None

>  <activity_id>  (415) 
1795693

>  <standard_type>  (415) 
IC50

>  <target_chembl_id>  (415) 
CHEMBL233

>  <data_validity_comment>  (415) 
None

>  <published_value>  (415) 
18

>  <document_year>  (415) 
2006

>  <target_pref_name>  (415) 
Mu opioid receptor

>  <assay_chembl_id>  (415) 
CHEMBL909298

>  <standard_relation>  (415) 
=

>  <assay_description>  (415) 
Antagonist activity assessed as inhibition of loperamide-stimulated [35S]GTPgammaS binding to human mu opioid receptor expressed in CHO cells

>  <published_relation>  (415) 
=

>  <standard_value>  (415) 
18

>  <qudt_units>  (415) 
http://www.openphacts.org/units/Nanomolar

>  <target_tax_id>  (415) 
9606

>  <bao_label>  (415) 
cell-based format

>  <published_units>  (415) 
nM

>  <pchembl_value>  (415) 
7.75

>  <published_type>  (415) 
IC50

>  <activity_comment>  (415) 
None

$$$$

     RDKit          

 26 29  0  0  0  0  0  0  0  0999 V2000
    0.0000    0.0000    0.0000 C   0  0  0  0  0  0  0  0  0  0  0  0
    0.0000    0.0000    0.0000 C   0  0  0  0  0  0  0  0  0  0  0  0
    0.0000    0.0000    0.0000 C   0  0  0  0  0  0  0  0  0  0  0  0
    0.0000    0.0000    0.0000 N   0  0  0  0  0  0  0  0  0  0  0  0
    0.0000    0.0000    0.0000 C   0  0  0  0  0  0  0  0  0  0  0  0
    0.0000    0.0000    0.0000 C   0  0  0  0  0  0  0  0  0  0  0  0
    0.0000    0.0000    0.0000 N   0  0  0  0  0  0  0  0  0  0  0  0
    0.0000    0.0000    0.0000 C   0  0  0  0  0  0  0  0  0  0  0  0
    0.0000    0.0000    0.0000 C   0  0  0  0  0  0  0  0  0  0  0  0
    0.0000    0.0000    0.0000 C   0  0  0  0  0  0  0  0  0  0  0  0
    0.0000    0.0000    0.0000 C   0  0  0  0  0  0  0  0  0  0  0  0
    0.0000    0.0000    0.0000 C   0  0  0  0  0  0  0  0  0  0  0  0
    0.0000    0.0000    0.0000 N   0  0  0  0  0  0  0  0  0  0  0  0
    0.0000    0.0000    0.0000 C   0  0  0  0  0  0  0  0  0  0  0  0
    0.0000    0.0000    0.0000 C   0  0  0  0  0  0  0  0  0  0  0  0
    0.0000    0.0000    0.0000 C   0  0  0  0  0  0  0  0  0  0  0  0
    0.0000    0.0000    0.0000 C   0  0  0  0  0  0  0  0  0  0  0  0
    0.0000    0.0000    0.0000 C   0  0  0  0  0  0  0  0  0  0  0  0
    0.0000    0.0000    0.0000 C   0  0  0  0  0  0  0  0  0  0  0  0
    0.0000    0.0000    0.0000 C   0  0  0  0  0  0  0  0  0  0  0  0
    0.0000    0.0000    0.0000 C   0  0  0  0  0  0  0  0  0  0  0  0
    0.0000    0.0000    0.0000 C   0  0  0  0  0  0  0  0  0  0  0  0
    0.0000    0.0000    0.0000 C   0  0  0  0  0  0  0  0  0  0  0  0
    0.0000    0.0000    0.0000 C   0  0  0  0  0  0  0  0  0  0  0  0
    0.0000    0.0000    0.0000 O   0  0  0  0  0  0  0  0  0  0  0  0
    0.0000    0.0000    0.0000 C   0  0  0  0  0  0  0  0  0  0  0  0
  1  2  1  0
  2  3  1  0
  3  4  1  0
  4  5  1  0
  5  6  1  0
  6  7  1  0
  7  8  1  0
  8  9  1  0
  9 10  2  0
 10 11  1  0
 11 12  2  0
 12 13  1  0
 13 14  2  0
  7 15  1  0
 15 16  1  0
 16 17  1  0
 17 18  1  0
 18 19  1  0
 18 20  1  0
 20 21  2  0
 21 22  1  0
 22 23  2  0
 23 24  1  0
 24 25  1  0
 24 26  2  0
 18  2  1  0
 16  4  1  0
 14  9  1  0
 26 20  1  0
M  END
>  <pIC50>  (416) 
8.13

>  <ChEMBL_ID>  (416) 
CHEMBL219099

>  <document_journal>  (416) 
J. Med. Chem.

>  <bao_endpoint>  (416) 
BAO_0000190

>  <potential_duplicate>  (416) 
False

>  <uo_units>  (416) 
UO_0000065

>  <canonical_smiles>  (416) 
C[C@H]1CN2CCN(Cc3cccnc3)C[C@H]2C[C@@]1(C)c4cccc(O)c4

>  <parent_molecule_chembl_id>  (416) 
CHEMBL219099

>  <assay_type>  (416) 
F

>  <src_id>  (416) 
1

>  <ligand_efficiency>  (416) 
None

>  <standard_flag>  (416) 
True

>  <molecule_chembl_id>  (416) 
CHEMBL219099

>  <target_organism>  (416) 
Homo sapiens

>  <standard_units>  (416) 
nM

>  <record_id>  (416) 
619683

>  <document_chembl_id>  (416) 
CHEMBL1137297

>  <bao_format>  (416) 
BAO_0000219

>  <data_validity_description>  (416) 
None

>  <activity_id>  (416) 
1795694

>  <standard_type>  (416) 
IC50

>  <target_chembl_id>  (416) 
CHEMBL233

>  <data_validity_comment>  (416) 
None

>  <published_value>  (416) 
7.5

>  <document_year>  (416) 
2006

>  <target_pref_name>  (416) 
Mu opioid receptor

>  <assay_chembl_id>  (416) 
CHEMBL909298

>  <standard_relation>  (416) 
=

>  <assay_description>  (416) 
Antagonist activity assessed as inhibition of loperamide-stimulated [35S]GTPgammaS binding to human mu opioid receptor expressed in CHO cells

>  <published_relation>  (416) 
=

>  <standard_value>  (416) 
7.5

>  <qudt_units>  (416) 
http://www.openphacts.org/units/Nanomolar

>  <target_tax_id>  (416) 
9606

>  <bao_label>  (416) 
cell-based format

>  <published_units>  (416) 
nM

>  <pchembl_value>  (416) 
8.13

>  <published_type>  (416) 
IC50

>  <activity_comment>  (416) 
None

$$$$

     RDKit          

 26 29  0  0  0  0  0  0  0  0999 V2000
    0.0000    0.0000    0.0000 C   0  0  0  0  0  0  0  0  0  0  0  0
    0.0000    0.0000    0.0000 C   0  0  0  0  0  0  0  0  0  0  0  0
    0.0000    0.0000    0.0000 C   0  0  0  0  0  0  0  0  0  0  0  0
    0.0000    0.0000    0.0000 N   0  0  0  0  0  0  0  0  0  0  0  0
    0.0000    0.0000    0.0000 C   0  0  0  0  0  0  0  0  0  0  0  0
    0.0000    0.0000    0.0000 C   0  0  0  0  0  0  0  0  0  0  0  0
    0.0000    0.0000    0.0000 N   0  0  0  0  0  0  0  0  0  0  0  0
    0.0000    0.0000    0.0000 C   0  0  0  0  0  0  0  0  0  0  0  0
    0.0000    0.0000    0.0000 C   0  0  0  0  0  0  0  0  0  0  0  0
    0.0000    0.0000    0.0000 C   0  0  0  0  0  0  0  0  0  0  0  0
    0.0000    0.0000    0.0000 C   0  0  0  0  0  0  0  0  0  0  0  0
    0.0000    0.0000    0.0000 C   0  0  0  0  0  0  0  0  0  0  0  0
    0.0000    0.0000    0.0000 C   0  0  0  0  0  0  0  0  0  0  0  0
    0.0000    0.0000    0.0000 N   0  0  0  0  0  0  0  0  0  0  0  0
    0.0000    0.0000    0.0000 C   0  0  0  0  0  0  0  0  0  0  0  0
    0.0000    0.0000    0.0000 C   0  0  0  0  0  0  0  0  0  0  0  0
    0.0000    0.0000    0.0000 C   0  0  0  0  0  0  0  0  0  0  0  0
    0.0000    0.0000    0.0000 C   0  0  0  0  0  0  0  0  0  0  0  0
    0.0000    0.0000    0.0000 C   0  0  0  0  0  0  0  0  0  0  0  0
    0.0000    0.0000    0.0000 C   0  0  0  0  0  0  0  0  0  0  0  0
    0.0000    0.0000    0.0000 C   0  0  0  0  0  0  0  0  0  0  0  0
    0.0000    0.0000    0.0000 C   0  0  0  0  0  0  0  0  0  0  0  0
    0.0000    0.0000    0.0000 C   0  0  0  0  0  0  0  0  0  0  0  0
    0.0000    0.0000    0.0000 C   0  0  0  0  0  0  0  0  0  0  0  0
    0.0000    0.0000    0.0000 O   0  0  0  0  0  0  0  0  0  0  0  0
    0.0000    0.0000    0.0000 C   0  0  0  0  0  0  0  0  0  0  0  0
  1  2  1  0
  2  3  1  0
  3  4  1  0
  4  5  1  0
  5  6  1  0
  6  7  1  0
  7  8  1  0
  8  9  1  0
  9 10  2  0
 10 11  1  0
 11 12  2  0
 12 13  1  0
 13 14  2  0
  7 15  1  0
 15 16  1  0
 16 17  1  0
 17 18  1  0
 18 19  1  0
 18 20  1  0
 20 21  2  0
 21 22  1  0
 22 23  2  0
 23 24  1  0
 24 25  1  0
 24 26  2  0
 18  2  1  0
 16  4  1  0
 14  9  1  0
 26 20  1  0
M  END
>  <pIC50>  (417) 
7.89

>  <ChEMBL_ID>  (417) 
CHEMBL219466

>  <document_journal>  (417) 
J. Med. Chem.

>  <bao_endpoint>  (417) 
BAO_0000190

>  <potential_duplicate>  (417) 
False

>  <uo_units>  (417) 
UO_0000065

>  <canonical_smiles>  (417) 
C[C@H]1CN2CCN(Cc3ccccn3)C[C@H]2C[C@@]1(C)c4cccc(O)c4

>  <parent_molecule_chembl_id>  (417) 
CHEMBL219466

>  <assay_type>  (417) 
F

>  <src_id>  (417) 
1

>  <ligand_efficiency>  (417) 
None

>  <standard_flag>  (417) 
True

>  <molecule_chembl_id>  (417) 
CHEMBL219466

>  <target_organism>  (417) 
Homo sapiens

>  <standard_units>  (417) 
nM

>  <record_id>  (417) 
619682

>  <document_chembl_id>  (417) 
CHEMBL1137297

>  <bao_format>  (417) 
BAO_0000219

>  <data_validity_description>  (417) 
None

>  <activity_id>  (417) 
1795695

>  <standard_type>  (417) 
IC50

>  <target_chembl_id>  (417) 
CHEMBL233

>  <data_validity_comment>  (417) 
None

>  <published_value>  (417) 
13

>  <document_year>  (417) 
2006

>  <target_pref_name>  (417) 
Mu opioid receptor

>  <assay_chembl_id>  (417) 
CHEMBL909298

>  <standard_relation>  (417) 
=

>  <assay_description>  (417) 
Antagonist activity assessed as inhibition of loperamide-stimulated [35S]GTPgammaS binding to human mu opioid receptor expressed in CHO cells

>  <published_relation>  (417) 
=

>  <standard_value>  (417) 
13

>  <qudt_units>  (417) 
http://www.openphacts.org/units/Nanomolar

>  <target_tax_id>  (417) 
9606

>  <bao_label>  (417) 
cell-based format

>  <published_units>  (417) 
nM

>  <pchembl_value>  (417) 
7.89

>  <published_type>  (417) 
IC50

>  <activity_comment>  (417) 
None

$$$$

     RDKit          

 30 34  0  0  0  0  0  0  0  0999 V2000
    0.0000    0.0000    0.0000 C   0  0  0  0  0  0  0  0  0  0  0  0
    0.0000    0.0000    0.0000 C   0  0  0  0  0  0  0  0  0  0  0  0
    0.0000    0.0000    0.0000 C   0  0  0  0  0  0  0  0  0  0  0  0
    0.0000    0.0000    0.0000 N   0  0  0  0  0  0  0  0  0  0  0  0
    0.0000    0.0000    0.0000 C   0  0  0  0  0  0  0  0  0  0  0  0
    0.0000    0.0000    0.0000 C   0  0  0  0  0  0  0  0  0  0  0  0
    0.0000    0.0000    0.0000 N   0  0  0  0  0  0  0  0  0  0  0  0
    0.0000    0.0000    0.0000 C   0  0  0  0  0  0  0  0  0  0  0  0
    0.0000    0.0000    0.0000 C   0  0  0  0  0  0  0  0  0  0  0  0
    0.0000    0.0000    0.0000 C   0  0  0  0  0  0  0  0  0  0  0  0
    0.0000    0.0000    0.0000 C   0  0  0  0  0  0  0  0  0  0  0  0
    0.0000    0.0000    0.0000 N   0  0  0  0  0  0  0  0  0  0  0  0
    0.0000    0.0000    0.0000 C   0  0  0  0  0  0  0  0  0  0  0  0
    0.0000    0.0000    0.0000 C   0  0  0  0  0  0  0  0  0  0  0  0
    0.0000    0.0000    0.0000 C   0  0  0  0  0  0  0  0  0  0  0  0
    0.0000    0.0000    0.0000 C   0  0  0  0  0  0  0  0  0  0  0  0
    0.0000    0.0000    0.0000 C   0  0  0  0  0  0  0  0  0  0  0  0
    0.0000    0.0000    0.0000 C   0  0  0  0  0  0  0  0  0  0  0  0
    0.0000    0.0000    0.0000 C   0  0  0  0  0  0  0  0  0  0  0  0
    0.0000    0.0000    0.0000 C   0  0  0  0  0  0  0  0  0  0  0  0
    0.0000    0.0000    0.0000 C   0  0  0  0  0  0  0  0  0  0  0  0
    0.0000    0.0000    0.0000 C   0  0  0  0  0  0  0  0  0  0  0  0
    0.0000    0.0000    0.0000 C   0  0  0  0  0  0  0  0  0  0  0  0
    0.0000    0.0000    0.0000 C   0  0  0  0  0  0  0  0  0  0  0  0
    0.0000    0.0000    0.0000 C   0  0  0  0  0  0  0  0  0  0  0  0
    0.0000    0.0000    0.0000 C   0  0  0  0  0  0  0  0  0  0  0  0
    0.0000    0.0000    0.0000 C   0  0  0  0  0  0  0  0  0  0  0  0
    0.0000    0.0000    0.0000 C   0  0  0  0  0  0  0  0  0  0  0  0
    0.0000    0.0000    0.0000 O   0  0  0  0  0  0  0  0  0  0  0  0
    0.0000    0.0000    0.0000 C   0  0  0  0  0  0  0  0  0  0  0  0
  1  2  1  0
  2  3  1  0
  3  4  1  0
  4  5  1  0
  5  6  1  0
  6  7  1  0
  7  8  1  0
  8  9  1  0
  9 10  2  0
 10 11  1  0
 11 12  2  0
 12 13  1  0
 13 14  2  0
 14 15  1  0
 15 16  2  0
 16 17  1  0
 17 18  2  0
  7 19  1  0
 19 20  1  0
 20 21  1  0
 21 22  1  0
 22 23  1  0
 22 24  1  0
 24 25  2  0
 25 26  1  0
 26 27  2  0
 27 28  1  0
 28 29  1  0
 28 30  2  0
 22  2  1  0
 20  4  1  0
 18  9  1  0
 18 13  1  0
 30 24  1  0
M  END
>  <pIC50>  (418) 
7.1

>  <ChEMBL_ID>  (418) 
CHEMBL373709

>  <document_journal>  (418) 
J. Med. Chem.

>  <bao_endpoint>  (418) 
BAO_0000190

>  <potential_duplicate>  (418) 
False

>  <uo_units>  (418) 
UO_0000065

>  <canonical_smiles>  (418) 
C[C@H]1CN2CCN(Cc3ccnc4ccccc34)C[C@H]2C[C@@]1(C)c5cccc(O)c5

>  <parent_molecule_chembl_id>  (418) 
CHEMBL373709

>  <assay_type>  (418) 
F

>  <src_id>  (418) 
1

>  <ligand_efficiency>  (418) 
None

>  <standard_flag>  (418) 
True

>  <molecule_chembl_id>  (418) 
CHEMBL373709

>  <target_organism>  (418) 
Homo sapiens

>  <standard_units>  (418) 
nM

>  <record_id>  (418) 
619681

>  <document_chembl_id>  (418) 
CHEMBL1137297

>  <bao_format>  (418) 
BAO_0000219

>  <data_validity_description>  (418) 
None

>  <activity_id>  (418) 
1795696

>  <standard_type>  (418) 
IC50

>  <target_chembl_id>  (418) 
CHEMBL233

>  <data_validity_comment>  (418) 
None

>  <published_value>  (418) 
80

>  <document_year>  (418) 
2006

>  <target_pref_name>  (418) 
Mu opioid receptor

>  <assay_chembl_id>  (418) 
CHEMBL909298

>  <standard_relation>  (418) 
=

>  <assay_description>  (418) 
Antagonist activity assessed as inhibition of loperamide-stimulated [35S]GTPgammaS binding to human mu opioid receptor expressed in CHO cells

>  <published_relation>  (418) 
=

>  <standard_value>  (418) 
80

>  <qudt_units>  (418) 
http://www.openphacts.org/units/Nanomolar

>  <target_tax_id>  (418) 
9606

>  <bao_label>  (418) 
cell-based format

>  <published_units>  (418) 
nM

>  <pchembl_value>  (418) 
7.1

>  <published_type>  (418) 
IC50

>  <activity_comment>  (418) 
None

$$$$

     RDKit          

 30 34  0  0  0  0  0  0  0  0999 V2000
    0.0000    0.0000    0.0000 C   0  0  0  0  0  0  0  0  0  0  0  0
    0.0000    0.0000    0.0000 C   0  0  0  0  0  0  0  0  0  0  0  0
    0.0000    0.0000    0.0000 C   0  0  0  0  0  0  0  0  0  0  0  0
    0.0000    0.0000    0.0000 N   0  0  0  0  0  0  0  0  0  0  0  0
    0.0000    0.0000    0.0000 C   0  0  0  0  0  0  0  0  0  0  0  0
    0.0000    0.0000    0.0000 C   0  0  0  0  0  0  0  0  0  0  0  0
    0.0000    0.0000    0.0000 N   0  0  0  0  0  0  0  0  0  0  0  0
    0.0000    0.0000    0.0000 C   0  0  0  0  0  0  0  0  0  0  0  0
    0.0000    0.0000    0.0000 C   0  0  0  0  0  0  0  0  0  0  0  0
    0.0000    0.0000    0.0000 C   0  0  0  0  0  0  0  0  0  0  0  0
    0.0000    0.0000    0.0000 C   0  0  0  0  0  0  0  0  0  0  0  0
    0.0000    0.0000    0.0000 C   0  0  0  0  0  0  0  0  0  0  0  0
    0.0000    0.0000    0.0000 C   0  0  0  0  0  0  0  0  0  0  0  0
    0.0000    0.0000    0.0000 C   0  0  0  0  0  0  0  0  0  0  0  0
    0.0000    0.0000    0.0000 C   0  0  0  0  0  0  0  0  0  0  0  0
    0.0000    0.0000    0.0000 C   0  0  0  0  0  0  0  0  0  0  0  0
    0.0000    0.0000    0.0000 C   0  0  0  0  0  0  0  0  0  0  0  0
    0.0000    0.0000    0.0000 C   0  0  0  0  0  0  0  0  0  0  0  0
    0.0000    0.0000    0.0000 C   0  0  0  0  0  0  0  0  0  0  0  0
    0.0000    0.0000    0.0000 C   0  0  0  0  0  0  0  0  0  0  0  0
    0.0000    0.0000    0.0000 C   0  0  0  0  0  0  0  0  0  0  0  0
    0.0000    0.0000    0.0000 C   0  0  0  0  0  0  0  0  0  0  0  0
    0.0000    0.0000    0.0000 C   0  0  0  0  0  0  0  0  0  0  0  0
    0.0000    0.0000    0.0000 C   0  0  0  0  0  0  0  0  0  0  0  0
    0.0000    0.0000    0.0000 C   0  0  0  0  0  0  0  0  0  0  0  0
    0.0000    0.0000    0.0000 C   0  0  0  0  0  0  0  0  0  0  0  0
    0.0000    0.0000    0.0000 C   0  0  0  0  0  0  0  0  0  0  0  0
    0.0000    0.0000    0.0000 C   0  0  0  0  0  0  0  0  0  0  0  0
    0.0000    0.0000    0.0000 O   0  0  0  0  0  0  0  0  0  0  0  0
    0.0000    0.0000    0.0000 C   0  0  0  0  0  0  0  0  0  0  0  0
  1  2  1  0
  2  3  1  0
  3  4  1  0
  4  5  1  0
  5  6  1  0
  6  7  1  0
  7  8  1  0
  8  9  1  0
  9 10  2  0
 10 11  1  0
 11 12  2  0
 12 13  1  0
 13 14  2  0
 14 15  1  0
 15 16  2  0
 16 17  1  0
 17 18  2  0
  7 19  1  0
 19 20  1  0
 20 21  1  0
 21 22  1  0
 22 23  1  0
 22 24  1  0
 24 25  2  0
 25 26  1  0
 26 27  2  0
 27 28  1  0
 28 29  1  0
 28 30  2  0
 22  2  1  0
 20  4  1  0
 18  9  1  0
 18 13  1  0
 30 24  1  0
M  END
>  <pIC50>  (419) 
7.8

>  <ChEMBL_ID>  (419) 
CHEMBL375633

>  <document_journal>  (419) 
J. Med. Chem.

>  <bao_endpoint>  (419) 
BAO_0000190

>  <potential_duplicate>  (419) 
False

>  <uo_units>  (419) 
UO_0000065

>  <canonical_smiles>  (419) 
C[C@H]1CN2CCN(Cc3cccc4ccccc34)C[C@H]2C[C@@]1(C)c5cccc(O)c5

>  <parent_molecule_chembl_id>  (419) 
CHEMBL375633

>  <assay_type>  (419) 
F

>  <src_id>  (419) 
1

>  <ligand_efficiency>  (419) 
None

>  <standard_flag>  (419) 
True

>  <molecule_chembl_id>  (419) 
CHEMBL375633

>  <target_organism>  (419) 
Homo sapiens

>  <standard_units>  (419) 
nM

>  <record_id>  (419) 
619680

>  <document_chembl_id>  (419) 
CHEMBL1137297

>  <bao_format>  (419) 
BAO_0000219

>  <data_validity_description>  (419) 
None

>  <activity_id>  (419) 
1795697

>  <standard_type>  (419) 
IC50

>  <target_chembl_id>  (419) 
CHEMBL233

>  <data_validity_comment>  (419) 
None

>  <published_value>  (419) 
16

>  <document_year>  (419) 
2006

>  <target_pref_name>  (419) 
Mu opioid receptor

>  <assay_chembl_id>  (419) 
CHEMBL909298

>  <standard_relation>  (419) 
=

>  <assay_description>  (419) 
Antagonist activity assessed as inhibition of loperamide-stimulated [35S]GTPgammaS binding to human mu opioid receptor expressed in CHO cells

>  <published_relation>  (419) 
=

>  <standard_value>  (419) 
16

>  <qudt_units>  (419) 
http://www.openphacts.org/units/Nanomolar

>  <target_tax_id>  (419) 
9606

>  <bao_label>  (419) 
cell-based format

>  <published_units>  (419) 
nM

>  <pchembl_value>  (419) 
7.8

>  <published_type>  (419) 
IC50

>  <activity_comment>  (419) 
None

$$$$

     RDKit          

 30 34  0  0  0  0  0  0  0  0999 V2000
    0.0000    0.0000    0.0000 C   0  0  0  0  0  0  0  0  0  0  0  0
    0.0000    0.0000    0.0000 C   0  0  0  0  0  0  0  0  0  0  0  0
    0.0000    0.0000    0.0000 C   0  0  0  0  0  0  0  0  0  0  0  0
    0.0000    0.0000    0.0000 N   0  0  0  0  0  0  0  0  0  0  0  0
    0.0000    0.0000    0.0000 C   0  0  0  0  0  0  0  0  0  0  0  0
    0.0000    0.0000    0.0000 C   0  0  0  0  0  0  0  0  0  0  0  0
    0.0000    0.0000    0.0000 N   0  0  0  0  0  0  0  0  0  0  0  0
    0.0000    0.0000    0.0000 C   0  0  0  0  0  0  0  0  0  0  0  0
    0.0000    0.0000    0.0000 C   0  0  0  0  0  0  0  0  0  0  0  0
    0.0000    0.0000    0.0000 C   0  0  0  0  0  0  0  0  0  0  0  0
    0.0000    0.0000    0.0000 C   0  0  0  0  0  0  0  0  0  0  0  0
    0.0000    0.0000    0.0000 C   0  0  0  0  0  0  0  0  0  0  0  0
    0.0000    0.0000    0.0000 C   0  0  0  0  0  0  0  0  0  0  0  0
    0.0000    0.0000    0.0000 C   0  0  0  0  0  0  0  0  0  0  0  0
    0.0000    0.0000    0.0000 C   0  0  0  0  0  0  0  0  0  0  0  0
    0.0000    0.0000    0.0000 C   0  0  0  0  0  0  0  0  0  0  0  0
    0.0000    0.0000    0.0000 C   0  0  0  0  0  0  0  0  0  0  0  0
    0.0000    0.0000    0.0000 C   0  0  0  0  0  0  0  0  0  0  0  0
    0.0000    0.0000    0.0000 C   0  0  0  0  0  0  0  0  0  0  0  0
    0.0000    0.0000    0.0000 C   0  0  0  0  0  0  0  0  0  0  0  0
    0.0000    0.0000    0.0000 C   0  0  0  0  0  0  0  0  0  0  0  0
    0.0000    0.0000    0.0000 C   0  0  0  0  0  0  0  0  0  0  0  0
    0.0000    0.0000    0.0000 C   0  0  0  0  0  0  0  0  0  0  0  0
    0.0000    0.0000    0.0000 C   0  0  0  0  0  0  0  0  0  0  0  0
    0.0000    0.0000    0.0000 C   0  0  0  0  0  0  0  0  0  0  0  0
    0.0000    0.0000    0.0000 C   0  0  0  0  0  0  0  0  0  0  0  0
    0.0000    0.0000    0.0000 C   0  0  0  0  0  0  0  0  0  0  0  0
    0.0000    0.0000    0.0000 C   0  0  0  0  0  0  0  0  0  0  0  0
    0.0000    0.0000    0.0000 O   0  0  0  0  0  0  0  0  0  0  0  0
    0.0000    0.0000    0.0000 C   0  0  0  0  0  0  0  0  0  0  0  0
  1  2  1  0
  2  3  1  0
  3  4  1  0
  4  5  1  0
  5  6  1  0
  6  7  1  0
  7  8  1  0
  8  9  1  0
  9 10  2  0
 10 11  1  0
 11 12  2  0
 12 13  1  0
 13 14  2  0
 14 15  1  0
 15 16  2  0
 16 17  1  0
 17 18  2  0
  7 19  1  0
 19 20  1  0
 20 21  1  0
 21 22  1  0
 22 23  1  0
 22 24  1  0
 24 25  2  0
 25 26  1  0
 26 27  2  0
 27 28  1  0
 28 29  1  0
 28 30  2  0
 22  2  1  0
 20  4  1  0
 18  9  1  0
 17 12  1  0
 30 24  1  0
M  END
>  <pIC50>  (420) 
7.13

>  <ChEMBL_ID>  (420) 
CHEMBL218136

>  <document_journal>  (420) 
J. Med. Chem.

>  <bao_endpoint>  (420) 
BAO_0000190

>  <potential_duplicate>  (420) 
False

>  <uo_units>  (420) 
UO_0000065

>  <canonical_smiles>  (420) 
C[C@H]1CN2CCN(Cc3ccc4ccccc4c3)C[C@H]2C[C@@]1(C)c5cccc(O)c5

>  <parent_molecule_chembl_id>  (420) 
CHEMBL218136

>  <assay_type>  (420) 
F

>  <src_id>  (420) 
1

>  <ligand_efficiency>  (420) 
None

>  <standard_flag>  (420) 
True

>  <molecule_chembl_id>  (420) 
CHEMBL218136

>  <target_organism>  (420) 
Homo sapiens

>  <standard_units>  (420) 
nM

>  <record_id>  (420) 
619679

>  <document_chembl_id>  (420) 
CHEMBL1137297

>  <bao_format>  (420) 
BAO_0000219

>  <data_validity_description>  (420) 
None

>  <activity_id>  (420) 
1795698

>  <standard_type>  (420) 
IC50

>  <target_chembl_id>  (420) 
CHEMBL233

>  <data_validity_comment>  (420) 
None

>  <published_value>  (420) 
74

>  <document_year>  (420) 
2006

>  <target_pref_name>  (420) 
Mu opioid receptor

>  <assay_chembl_id>  (420) 
CHEMBL909298

>  <standard_relation>  (420) 
=

>  <assay_description>  (420) 
Antagonist activity assessed as inhibition of loperamide-stimulated [35S]GTPgammaS binding to human mu opioid receptor expressed in CHO cells

>  <published_relation>  (420) 
=

>  <standard_value>  (420) 
74

>  <qudt_units>  (420) 
http://www.openphacts.org/units/Nanomolar

>  <target_tax_id>  (420) 
9606

>  <bao_label>  (420) 
cell-based format

>  <published_units>  (420) 
nM

>  <pchembl_value>  (420) 
7.13

>  <published_type>  (420) 
IC50

>  <activity_comment>  (420) 
None

$$$$

     RDKit          

 34 38  0  0  0  0  0  0  0  0999 V2000
    0.0000    0.0000    0.0000 C   0  0  0  0  0  0  0  0  0  0  0  0
    0.0000    0.0000    0.0000 C   0  0  0  0  0  0  0  0  0  0  0  0
    0.0000    0.0000    0.0000 C   0  0  0  0  0  0  0  0  0  0  0  0
    0.0000    0.0000    0.0000 N   0  0  0  0  0  0  0  0  0  0  0  0
    0.0000    0.0000    0.0000 C   0  0  0  0  0  0  0  0  0  0  0  0
    0.0000    0.0000    0.0000 C   0  0  0  0  0  0  0  0  0  0  0  0
    0.0000    0.0000    0.0000 N   0  0  0  0  0  0  0  0  0  0  0  0
    0.0000    0.0000    0.0000 C   0  0  0  0  0  0  0  0  0  0  0  0
    0.0000    0.0000    0.0000 C   0  0  0  0  0  0  0  0  0  0  0  0
    0.0000    0.0000    0.0000 C   0  0  0  0  0  0  0  0  0  0  0  0
    0.0000    0.0000    0.0000 C   0  0  0  0  0  0  0  0  0  0  0  0
    0.0000    0.0000    0.0000 C   0  0  0  0  0  0  0  0  0  0  0  0
    0.0000    0.0000    0.0000 C   0  0  0  0  0  0  0  0  0  0  0  0
    0.0000    0.0000    0.0000 O   0  0  0  0  0  0  0  0  0  0  0  0
    0.0000    0.0000    0.0000 C   0  0  0  0  0  0  0  0  0  0  0  0
    0.0000    0.0000    0.0000 C   0  0  0  0  0  0  0  0  0  0  0  0
    0.0000    0.0000    0.0000 C   0  0  0  0  0  0  0  0  0  0  0  0
    0.0000    0.0000    0.0000 C   0  0  0  0  0  0  0  0  0  0  0  0
    0.0000    0.0000    0.0000 C   0  0  0  0  0  0  0  0  0  0  0  0
    0.0000    0.0000    0.0000 C   0  0  0  0  0  0  0  0  0  0  0  0
    0.0000    0.0000    0.0000 C   0  0  0  0  0  0  0  0  0  0  0  0
    0.0000    0.0000    0.0000 C   0  0  0  0  0  0  0  0  0  0  0  0
    0.0000    0.0000    0.0000 C   0  0  0  0  0  0  0  0  0  0  0  0
    0.0000    0.0000    0.0000 C   0  0  0  0  0  0  0  0  0  0  0  0
    0.0000    0.0000    0.0000 C   0  0  0  0  0  0  0  0  0  0  0  0
    0.0000    0.0000    0.0000 C   0  0  0  0  0  0  0  0  0  0  0  0
    0.0000    0.0000    0.0000 C   0  0  0  0  0  0  0  0  0  0  0  0
    0.0000    0.0000    0.0000 C   0  0  0  0  0  0  0  0  0  0  0  0
    0.0000    0.0000    0.0000 C   0  0  0  0  0  0  0  0  0  0  0  0
    0.0000    0.0000    0.0000 C   0  0  0  0  0  0  0  0  0  0  0  0
    0.0000    0.0000    0.0000 C   0  0  0  0  0  0  0  0  0  0  0  0
    0.0000    0.0000    0.0000 C   0  0  0  0  0  0  0  0  0  0  0  0
    0.0000    0.0000    0.0000 O   0  0  0  0  0  0  0  0  0  0  0  0
    0.0000    0.0000    0.0000 C   0  0  0  0  0  0  0  0  0  0  0  0
  1  2  1  0
  2  3  1  0
  3  4  1  0
  4  5  1  0
  5  6  1  0
  6  7  1  0
  7  8  1  0
  8  9  1  0
  9 10  2  0
 10 11  1  0
 11 12  2  0
 12 13  1  0
 13 14  1  0
 14 15  1  0
 15 16  1  0
 16 17  2  0
 17 18  1  0
 18 19  2  0
 19 20  1  0
 20 21  2  0
 13 22  2  0
  7 23  1  0
 23 24  1  0
 24 25  1  0
 25 26  1  0
 26 27  1  0
 26 28  1  0
 28 29  2  0
 29 30  1  0
 30 31  2  0
 31 32  1  0
 32 33  1  0
 32 34  2  0
 26  2  1  0
 24  4  1  0
 22  9  1  0
 21 16  1  0
 34 28  1  0
M  END
>  <pIC50>  (421) 
7.66

>  <ChEMBL_ID>  (421) 
CHEMBL384895

>  <document_journal>  (421) 
J. Med. Chem.

>  <bao_endpoint>  (421) 
BAO_0000190

>  <potential_duplicate>  (421) 
False

>  <uo_units>  (421) 
UO_0000065

>  <canonical_smiles>  (421) 
C[C@H]1CN2CCN(Cc3cccc(OCc4ccccc4)c3)C[C@H]2C[C@@]1(C)c5cccc(O)c5

>  <parent_molecule_chembl_id>  (421) 
CHEMBL384895

>  <assay_type>  (421) 
F

>  <src_id>  (421) 
1

>  <ligand_efficiency>  (421) 
None

>  <standard_flag>  (421) 
True

>  <molecule_chembl_id>  (421) 
CHEMBL384895

>  <target_organism>  (421) 
Homo sapiens

>  <standard_units>  (421) 
nM

>  <record_id>  (421) 
619678

>  <document_chembl_id>  (421) 
CHEMBL1137297

>  <bao_format>  (421) 
BAO_0000219

>  <data_validity_description>  (421) 
None

>  <activity_id>  (421) 
1795699

>  <standard_type>  (421) 
IC50

>  <target_chembl_id>  (421) 
CHEMBL233

>  <data_validity_comment>  (421) 
None

>  <published_value>  (421) 
22

>  <document_year>  (421) 
2006

>  <target_pref_name>  (421) 
Mu opioid receptor

>  <assay_chembl_id>  (421) 
CHEMBL909298

>  <standard_relation>  (421) 
=

>  <assay_description>  (421) 
Antagonist activity assessed as inhibition of loperamide-stimulated [35S]GTPgammaS binding to human mu opioid receptor expressed in CHO cells

>  <published_relation>  (421) 
=

>  <standard_value>  (421) 
22

>  <qudt_units>  (421) 
http://www.openphacts.org/units/Nanomolar

>  <target_tax_id>  (421) 
9606

>  <bao_label>  (421) 
cell-based format

>  <published_units>  (421) 
nM

>  <pchembl_value>  (421) 
7.66

>  <published_type>  (421) 
IC50

>  <activity_comment>  (421) 
None

$$$$

     RDKit          

 33 37  0  0  0  0  0  0  0  0999 V2000
    0.0000    0.0000    0.0000 C   0  0  0  0  0  0  0  0  0  0  0  0
    0.0000    0.0000    0.0000 C   0  0  0  0  0  0  0  0  0  0  0  0
    0.0000    0.0000    0.0000 C   0  0  0  0  0  0  0  0  0  0  0  0
    0.0000    0.0000    0.0000 N   0  0  0  0  0  0  0  0  0  0  0  0
    0.0000    0.0000    0.0000 C   0  0  0  0  0  0  0  0  0  0  0  0
    0.0000    0.0000    0.0000 C   0  0  0  0  0  0  0  0  0  0  0  0
    0.0000    0.0000    0.0000 N   0  0  0  0  0  0  0  0  0  0  0  0
    0.0000    0.0000    0.0000 C   0  0  0  0  0  0  0  0  0  0  0  0
    0.0000    0.0000    0.0000 C   0  0  0  0  0  0  0  0  0  0  0  0
    0.0000    0.0000    0.0000 C   0  0  0  0  0  0  0  0  0  0  0  0
    0.0000    0.0000    0.0000 C   0  0  0  0  0  0  0  0  0  0  0  0
    0.0000    0.0000    0.0000 C   0  0  0  0  0  0  0  0  0  0  0  0
    0.0000    0.0000    0.0000 C   0  0  0  0  0  0  0  0  0  0  0  0
    0.0000    0.0000    0.0000 O   0  0  0  0  0  0  0  0  0  0  0  0
    0.0000    0.0000    0.0000 C   0  0  0  0  0  0  0  0  0  0  0  0
    0.0000    0.0000    0.0000 C   0  0  0  0  0  0  0  0  0  0  0  0
    0.0000    0.0000    0.0000 C   0  0  0  0  0  0  0  0  0  0  0  0
    0.0000    0.0000    0.0000 C   0  0  0  0  0  0  0  0  0  0  0  0
    0.0000    0.0000    0.0000 C   0  0  0  0  0  0  0  0  0  0  0  0
    0.0000    0.0000    0.0000 C   0  0  0  0  0  0  0  0  0  0  0  0
    0.0000    0.0000    0.0000 C   0  0  0  0  0  0  0  0  0  0  0  0
    0.0000    0.0000    0.0000 C   0  0  0  0  0  0  0  0  0  0  0  0
    0.0000    0.0000    0.0000 C   0  0  0  0  0  0  0  0  0  0  0  0
    0.0000    0.0000    0.0000 C   0  0  0  0  0  0  0  0  0  0  0  0
    0.0000    0.0000    0.0000 C   0  0  0  0  0  0  0  0  0  0  0  0
    0.0000    0.0000    0.0000 C   0  0  0  0  0  0  0  0  0  0  0  0
    0.0000    0.0000    0.0000 C   0  0  0  0  0  0  0  0  0  0  0  0
    0.0000    0.0000    0.0000 C   0  0  0  0  0  0  0  0  0  0  0  0
    0.0000    0.0000    0.0000 C   0  0  0  0  0  0  0  0  0  0  0  0
    0.0000    0.0000    0.0000 C   0  0  0  0  0  0  0  0  0  0  0  0
    0.0000    0.0000    0.0000 C   0  0  0  0  0  0  0  0  0  0  0  0
    0.0000    0.0000    0.0000 O   0  0  0  0  0  0  0  0  0  0  0  0
    0.0000    0.0000    0.0000 C   0  0  0  0  0  0  0  0  0  0  0  0
  1  2  1  0
  2  3  1  0
  3  4  1  0
  4  5  1  0
  5  6  1  0
  6  7  1  0
  7  8  1  0
  8  9  1  0
  9 10  2  0
 10 11  1  0
 11 12  2  0
 12 13  1  0
 13 14  1  0
 14 15  1  0
 15 16  2  0
 16 17  1  0
 17 18  2  0
 18 19  1  0
 19 20  2  0
 13 21  2  0
  7 22  1  0
 22 23  1  0
 23 24  1  0
 24 25  1  0
 25 26  1  0
 25 27  1  0
 27 28  2  0
 28 29  1  0
 29 30  2  0
 30 31  1  0
 31 32  1  0
 31 33  2  0
 25  2  1  0
 23  4  1  0
 21  9  1  0
 20 15  1  0
 33 27  1  0
M  END
>  <pIC50>  (422) 
8.01

>  <ChEMBL_ID>  (422) 
CHEMBL219154

>  <document_journal>  (422) 
J. Med. Chem.

>  <bao_endpoint>  (422) 
BAO_0000190

>  <potential_duplicate>  (422) 
False

>  <uo_units>  (422) 
UO_0000065

>  <canonical_smiles>  (422) 
C[C@H]1CN2CCN(Cc3cccc(Oc4ccccc4)c3)C[C@H]2C[C@@]1(C)c5cccc(O)c5

>  <parent_molecule_chembl_id>  (422) 
CHEMBL219154

>  <assay_type>  (422) 
F

>  <src_id>  (422) 
1

>  <ligand_efficiency>  (422) 
None

>  <standard_flag>  (422) 
True

>  <molecule_chembl_id>  (422) 
CHEMBL219154

>  <target_organism>  (422) 
Homo sapiens

>  <standard_units>  (422) 
nM

>  <record_id>  (422) 
619677

>  <document_chembl_id>  (422) 
CHEMBL1137297

>  <bao_format>  (422) 
BAO_0000219

>  <data_validity_description>  (422) 
None

>  <activity_id>  (422) 
1795700

>  <standard_type>  (422) 
IC50

>  <target_chembl_id>  (422) 
CHEMBL233

>  <data_validity_comment>  (422) 
None

>  <published_value>  (422) 
9.7

>  <document_year>  (422) 
2006

>  <target_pref_name>  (422) 
Mu opioid receptor

>  <assay_chembl_id>  (422) 
CHEMBL909298

>  <standard_relation>  (422) 
=

>  <assay_description>  (422) 
Antagonist activity assessed as inhibition of loperamide-stimulated [35S]GTPgammaS binding to human mu opioid receptor expressed in CHO cells

>  <published_relation>  (422) 
=

>  <standard_value>  (422) 
9.7

>  <qudt_units>  (422) 
http://www.openphacts.org/units/Nanomolar

>  <target_tax_id>  (422) 
9606

>  <bao_label>  (422) 
cell-based format

>  <published_units>  (422) 
nM

>  <pchembl_value>  (422) 
8.01

>  <published_type>  (422) 
IC50

>  <activity_comment>  (422) 
None

$$$$

     RDKit          

 19 21  0  0  0  0  0  0  0  0999 V2000
    0.0000    0.0000    0.0000 C   0  0  0  0  0  0  0  0  0  0  0  0
    0.0000    0.0000    0.0000 C   0  0  0  0  0  0  0  0  0  0  0  0
    0.0000    0.0000    0.0000 C   0  0  0  0  0  0  0  0  0  0  0  0
    0.0000    0.0000    0.0000 C   0  0  0  0  0  0  0  0  0  0  0  0
    0.0000    0.0000    0.0000 C   0  0  0  0  0  0  0  0  0  0  0  0
    0.0000    0.0000    0.0000 C   0  0  0  0  0  0  0  0  0  0  0  0
    0.0000    0.0000    0.0000 C   0  0  0  0  0  0  0  0  0  0  0  0
    0.0000    0.0000    0.0000 N   0  0  0  0  0  0  0  0  0  0  0  0
    0.0000    0.0000    0.0000 C   0  0  0  0  0  0  0  0  0  0  0  0
    0.0000    0.0000    0.0000 C   0  0  0  0  0  0  0  0  0  0  0  0
    0.0000    0.0000    0.0000 C   0  0  0  0  0  0  0  0  0  0  0  0
    0.0000    0.0000    0.0000 C   0  0  0  0  0  0  0  0  0  0  0  0
    0.0000    0.0000    0.0000 C   0  0  0  0  0  0  0  0  0  0  0  0
    0.0000    0.0000    0.0000 C   0  0  0  0  0  0  0  0  0  0  0  0
    0.0000    0.0000    0.0000 C   0  0  0  0  0  0  0  0  0  0  0  0
    0.0000    0.0000    0.0000 C   0  0  0  0  0  0  0  0  0  0  0  0
    0.0000    0.0000    0.0000 C   0  0  0  0  0  0  0  0  0  0  0  0
    0.0000    0.0000    0.0000 O   0  0  0  0  0  0  0  0  0  0  0  0
    0.0000    0.0000    0.0000 C   0  0  0  0  0  0  0  0  0  0  0  0
  1  2  1  0
  2  3  1  0
  3  4  1  0
  4  5  1  0
  5  6  1  0
  6  7  1  0
  7  8  1  0
  8  9  1  0
  9 10  1  0
 10 11  1  0
 11 12  1  0
 11 13  1  0
 13 14  2  0
 14 15  1  0
 15 16  2  0
 16 17  1  0
 17 18  1  0
 17 19  2  0
 11  2  1  0
  8  3  1  0
 19 13  1  0
M  END
>  <pIC50>  (423) 
6.0

>  <ChEMBL_ID>  (423) 
CHEMBL219012

>  <document_journal>  (423) 
J. Med. Chem.

>  <bao_endpoint>  (423) 
BAO_0000190

>  <potential_duplicate>  (423) 
False

>  <uo_units>  (423) 
UO_0000065

>  <canonical_smiles>  (423) 
C[C@H]1[C@@H]2CCCCN2CC[C@@]1(C)c3cccc(O)c3

>  <parent_molecule_chembl_id>  (423) 
CHEMBL219012

>  <assay_type>  (423) 
F

>  <src_id>  (423) 
1

>  <ligand_efficiency>  (423) 
None

>  <standard_flag>  (423) 
True

>  <molecule_chembl_id>  (423) 
CHEMBL219012

>  <target_organism>  (423) 
Homo sapiens

>  <standard_units>  (423) 
nM

>  <record_id>  (423) 
619726

>  <document_chembl_id>  (423) 
CHEMBL1137299

>  <bao_format>  (423) 
BAO_0000219

>  <data_validity_description>  (423) 
None

>  <activity_id>  (423) 
1796233

>  <standard_type>  (423) 
IC50

>  <target_chembl_id>  (423) 
CHEMBL233

>  <data_validity_comment>  (423) 
None

>  <published_value>  (423) 
1000

>  <document_year>  (423) 
2006

>  <target_pref_name>  (423) 
Mu opioid receptor

>  <assay_chembl_id>  (423) 
CHEMBL909317

>  <standard_relation>  (423) 
=

>  <assay_description>  (423) 
Antagonist activity against human cloned mu opioid receptor expressed in CHO cells assessed as inhibition of loperamide-stimulated [35S]GTP-gamma-S binding

>  <published_relation>  (423) 
=

>  <standard_value>  (423) 
1000

>  <qudt_units>  (423) 
http://www.openphacts.org/units/Nanomolar

>  <target_tax_id>  (423) 
9606

>  <bao_label>  (423) 
cell-based format

>  <published_units>  (423) 
nM

>  <pchembl_value>  (423) 
6

>  <published_type>  (423) 
IC50

>  <activity_comment>  (423) 
None

$$$$

     RDKit          

 25 28  0  0  0  0  0  0  0  0999 V2000
    0.0000    0.0000    0.0000 C   0  0  0  0  0  0  0  0  0  0  0  0
    0.0000    0.0000    0.0000 C   0  0  0  0  0  0  0  0  0  0  0  0
    0.0000    0.0000    0.0000 C   0  0  0  0  0  0  0  0  0  0  0  0
    0.0000    0.0000    0.0000 C   0  0  0  0  0  0  0  0  0  0  0  0
    0.0000    0.0000    0.0000 C   0  0  0  0  0  0  0  0  0  0  0  0
    0.0000    0.0000    0.0000 C   0  0  0  0  0  0  0  0  0  0  0  0
    0.0000    0.0000    0.0000 C   0  0  0  0  0  0  0  0  0  0  0  0
    0.0000    0.0000    0.0000 N   0  0  0  0  0  0  0  0  0  0  0  0
    0.0000    0.0000    0.0000 C   0  0  0  0  0  0  0  0  0  0  0  0
    0.0000    0.0000    0.0000 C   0  0  0  0  0  0  0  0  0  0  0  0
    0.0000    0.0000    0.0000 C   0  0  0  0  0  0  0  0  0  0  0  0
    0.0000    0.0000    0.0000 C   0  0  0  0  0  0  0  0  0  0  0  0
    0.0000    0.0000    0.0000 C   0  0  0  0  0  0  0  0  0  0  0  0
    0.0000    0.0000    0.0000 C   0  0  0  0  0  0  0  0  0  0  0  0
    0.0000    0.0000    0.0000 C   0  0  0  0  0  0  0  0  0  0  0  0
    0.0000    0.0000    0.0000 C   0  0  0  0  0  0  0  0  0  0  0  0
    0.0000    0.0000    0.0000 C   0  0  0  0  0  0  0  0  0  0  0  0
    0.0000    0.0000    0.0000 O   0  0  0  0  0  0  0  0  0  0  0  0
    0.0000    0.0000    0.0000 C   0  0  0  0  0  0  0  0  0  0  0  0
    0.0000    0.0000    0.0000 C   0  0  0  0  0  0  0  0  0  0  0  0
    0.0000    0.0000    0.0000 C   0  0  0  0  0  0  0  0  0  0  0  0
    0.0000    0.0000    0.0000 C   0  0  0  0  0  0  0  0  0  0  0  0
    0.0000    0.0000    0.0000 C   0  0  0  0  0  0  0  0  0  0  0  0
    0.0000    0.0000    0.0000 C   0  0  0  0  0  0  0  0  0  0  0  0
    0.0000    0.0000    0.0000 C   0  0  0  0  0  0  0  0  0  0  0  0
  1  2  1  0
  2  3  1  0
  3  4  1  0
  4  5  1  0
  5  6  1  0
  6  7  1  0
  7  8  1  0
  8  9  1  0
  9 10  1  0
 10 11  1  0
 11 12  1  0
 11 13  1  0
 13 14  2  0
 14 15  1  0
 15 16  2  0
 16 17  1  0
 17 18  1  0
 17 19  2  0
  6 20  1  0
 20 21  2  0
 21 22  1  0
 22 23  2  0
 23 24  1  0
 24 25  2  0
 11  2  1  0
  8  3  1  0
 19 13  1  0
 25 20  1  0
M  END
>  <pIC50>  (424) 
6.92

>  <ChEMBL_ID>  (424) 
CHEMBL262420

>  <document_journal>  (424) 
J. Med. Chem.

>  <bao_endpoint>  (424) 
BAO_0000190

>  <potential_duplicate>  (424) 
False

>  <uo_units>  (424) 
UO_0000065

>  <canonical_smiles>  (424) 
C[C@H]1[C@H]2CC[C@H](CN2CC[C@@]1(C)c3cccc(O)c3)c4ccccc4

>  <parent_molecule_chembl_id>  (424) 
CHEMBL262420

>  <assay_type>  (424) 
F

>  <src_id>  (424) 
1

>  <ligand_efficiency>  (424) 
None

>  <standard_flag>  (424) 
True

>  <molecule_chembl_id>  (424) 
CHEMBL262420

>  <target_organism>  (424) 
Homo sapiens

>  <standard_units>  (424) 
nM

>  <record_id>  (424) 
619723

>  <document_chembl_id>  (424) 
CHEMBL1137299

>  <bao_format>  (424) 
BAO_0000219

>  <data_validity_description>  (424) 
None

>  <activity_id>  (424) 
1796236

>  <standard_type>  (424) 
IC50

>  <target_chembl_id>  (424) 
CHEMBL233

>  <data_validity_comment>  (424) 
None

>  <published_value>  (424) 
120

>  <document_year>  (424) 
2006

>  <target_pref_name>  (424) 
Mu opioid receptor

>  <assay_chembl_id>  (424) 
CHEMBL909317

>  <standard_relation>  (424) 
=

>  <assay_description>  (424) 
Antagonist activity against human cloned mu opioid receptor expressed in CHO cells assessed as inhibition of loperamide-stimulated [35S]GTP-gamma-S binding

>  <published_relation>  (424) 
=

>  <standard_value>  (424) 
120

>  <qudt_units>  (424) 
http://www.openphacts.org/units/Nanomolar

>  <target_tax_id>  (424) 
9606

>  <bao_label>  (424) 
cell-based format

>  <published_units>  (424) 
nM

>  <pchembl_value>  (424) 
6.92

>  <published_type>  (424) 
IC50

>  <activity_comment>  (424) 
None

$$$$

     RDKit          

 25 28  0  0  0  0  0  0  0  0999 V2000
    0.0000    0.0000    0.0000 C   0  0  0  0  0  0  0  0  0  0  0  0
    0.0000    0.0000    0.0000 C   0  0  0  0  0  0  0  0  0  0  0  0
    0.0000    0.0000    0.0000 C   0  0  0  0  0  0  0  0  0  0  0  0
    0.0000    0.0000    0.0000 C   0  0  0  0  0  0  0  0  0  0  0  0
    0.0000    0.0000    0.0000 C   0  0  0  0  0  0  0  0  0  0  0  0
    0.0000    0.0000    0.0000 C   0  0  0  0  0  0  0  0  0  0  0  0
    0.0000    0.0000    0.0000 C   0  0  0  0  0  0  0  0  0  0  0  0
    0.0000    0.0000    0.0000 N   0  0  0  0  0  0  0  0  0  0  0  0
    0.0000    0.0000    0.0000 C   0  0  0  0  0  0  0  0  0  0  0  0
    0.0000    0.0000    0.0000 C   0  0  0  0  0  0  0  0  0  0  0  0
    0.0000    0.0000    0.0000 C   0  0  0  0  0  0  0  0  0  0  0  0
    0.0000    0.0000    0.0000 C   0  0  0  0  0  0  0  0  0  0  0  0
    0.0000    0.0000    0.0000 C   0  0  0  0  0  0  0  0  0  0  0  0
    0.0000    0.0000    0.0000 C   0  0  0  0  0  0  0  0  0  0  0  0
    0.0000    0.0000    0.0000 C   0  0  0  0  0  0  0  0  0  0  0  0
    0.0000    0.0000    0.0000 C   0  0  0  0  0  0  0  0  0  0  0  0
    0.0000    0.0000    0.0000 C   0  0  0  0  0  0  0  0  0  0  0  0
    0.0000    0.0000    0.0000 O   0  0  0  0  0  0  0  0  0  0  0  0
    0.0000    0.0000    0.0000 C   0  0  0  0  0  0  0  0  0  0  0  0
    0.0000    0.0000    0.0000 C   0  0  0  0  0  0  0  0  0  0  0  0
    0.0000    0.0000    0.0000 C   0  0  0  0  0  0  0  0  0  0  0  0
    0.0000    0.0000    0.0000 C   0  0  0  0  0  0  0  0  0  0  0  0
    0.0000    0.0000    0.0000 C   0  0  0  0  0  0  0  0  0  0  0  0
    0.0000    0.0000    0.0000 C   0  0  0  0  0  0  0  0  0  0  0  0
    0.0000    0.0000    0.0000 C   0  0  0  0  0  0  0  0  0  0  0  0
  1  2  1  0
  2  3  1  0
  3  4  1  0
  4  5  1  0
  5  6  1  0
  6  7  1  0
  7  8  1  0
  8  9  1  0
  9 10  1  0
 10 11  1  0
 11 12  1  0
 11 13  1  0
 13 14  2  0
 14 15  1  0
 15 16  2  0
 16 17  1  0
 17 18  1  0
 17 19  2  0
  6 20  1  0
 20 21  2  0
 21 22  1  0
 22 23  2  0
 23 24  1  0
 24 25  2  0
 11  2  1  0
  8  3  1  0
 19 13  1  0
 25 20  1  0
M  END
>  <pIC50>  (425) 
6.72

>  <ChEMBL_ID>  (425) 
CHEMBL385280

>  <document_journal>  (425) 
J. Med. Chem.

>  <bao_endpoint>  (425) 
BAO_0000190

>  <potential_duplicate>  (425) 
False

>  <uo_units>  (425) 
UO_0000065

>  <canonical_smiles>  (425) 
C[C@H]1[C@H]2CC[C@@H](CN2CC[C@@]1(C)c3cccc(O)c3)c4ccccc4

>  <parent_molecule_chembl_id>  (425) 
CHEMBL385280

>  <assay_type>  (425) 
F

>  <src_id>  (425) 
1

>  <ligand_efficiency>  (425) 
None

>  <standard_flag>  (425) 
True

>  <molecule_chembl_id>  (425) 
CHEMBL385280

>  <target_organism>  (425) 
Homo sapiens

>  <standard_units>  (425) 
nM

>  <record_id>  (425) 
619722

>  <document_chembl_id>  (425) 
CHEMBL1137299

>  <bao_format>  (425) 
BAO_0000219

>  <data_validity_description>  (425) 
None

>  <activity_id>  (425) 
1796237

>  <standard_type>  (425) 
IC50

>  <target_chembl_id>  (425) 
CHEMBL233

>  <data_validity_comment>  (425) 
None

>  <published_value>  (425) 
190

>  <document_year>  (425) 
2006

>  <target_pref_name>  (425) 
Mu opioid receptor

>  <assay_chembl_id>  (425) 
CHEMBL909317

>  <standard_relation>  (425) 
=

>  <assay_description>  (425) 
Antagonist activity against human cloned mu opioid receptor expressed in CHO cells assessed as inhibition of loperamide-stimulated [35S]GTP-gamma-S binding

>  <published_relation>  (425) 
=

>  <standard_value>  (425) 
190

>  <qudt_units>  (425) 
http://www.openphacts.org/units/Nanomolar

>  <target_tax_id>  (425) 
9606

>  <bao_label>  (425) 
cell-based format

>  <published_units>  (425) 
nM

>  <pchembl_value>  (425) 
6.72

>  <published_type>  (425) 
IC50

>  <activity_comment>  (425) 
None

$$$$

     RDKit          

 25 28  0  0  0  0  0  0  0  0999 V2000
    0.0000    0.0000    0.0000 C   0  0  0  0  0  0  0  0  0  0  0  0
    0.0000    0.0000    0.0000 C   0  0  0  0  0  0  0  0  0  0  0  0
    0.0000    0.0000    0.0000 C   0  0  0  0  0  0  0  0  0  0  0  0
    0.0000    0.0000    0.0000 C   0  0  0  0  0  0  0  0  0  0  0  0
    0.0000    0.0000    0.0000 C   0  0  0  0  0  0  0  0  0  0  0  0
    0.0000    0.0000    0.0000 C   0  0  0  0  0  0  0  0  0  0  0  0
    0.0000    0.0000    0.0000 C   0  0  0  0  0  0  0  0  0  0  0  0
    0.0000    0.0000    0.0000 N   0  0  0  0  0  0  0  0  0  0  0  0
    0.0000    0.0000    0.0000 C   0  0  0  0  0  0  0  0  0  0  0  0
    0.0000    0.0000    0.0000 C   0  0  0  0  0  0  0  0  0  0  0  0
    0.0000    0.0000    0.0000 C   0  0  0  0  0  0  0  0  0  0  0  0
    0.0000    0.0000    0.0000 C   0  0  0  0  0  0  0  0  0  0  0  0
    0.0000    0.0000    0.0000 C   0  0  0  0  0  0  0  0  0  0  0  0
    0.0000    0.0000    0.0000 C   0  0  0  0  0  0  0  0  0  0  0  0
    0.0000    0.0000    0.0000 C   0  0  0  0  0  0  0  0  0  0  0  0
    0.0000    0.0000    0.0000 C   0  0  0  0  0  0  0  0  0  0  0  0
    0.0000    0.0000    0.0000 C   0  0  0  0  0  0  0  0  0  0  0  0
    0.0000    0.0000    0.0000 O   0  0  0  0  0  0  0  0  0  0  0  0
    0.0000    0.0000    0.0000 C   0  0  0  0  0  0  0  0  0  0  0  0
    0.0000    0.0000    0.0000 C   0  0  0  0  0  0  0  0  0  0  0  0
    0.0000    0.0000    0.0000 C   0  0  0  0  0  0  0  0  0  0  0  0
    0.0000    0.0000    0.0000 C   0  0  0  0  0  0  0  0  0  0  0  0
    0.0000    0.0000    0.0000 C   0  0  0  0  0  0  0  0  0  0  0  0
    0.0000    0.0000    0.0000 C   0  0  0  0  0  0  0  0  0  0  0  0
    0.0000    0.0000    0.0000 C   0  0  0  0  0  0  0  0  0  0  0  0
  1  2  1  0
  2  3  1  0
  3  4  1  0
  4  5  1  0
  5  6  1  0
  6  7  1  0
  7  8  1  0
  8  9  1  0
  9 10  1  0
 10 11  1  0
 11 12  1  0
 11 13  1  0
 13 14  2  0
 14 15  1  0
 15 16  2  0
 16 17  1  0
 17 18  1  0
 17 19  2  0
  6 20  1  0
 20 21  2  0
 21 22  1  0
 22 23  2  0
 23 24  1  0
 24 25  2  0
 11  2  1  0
  8  3  1  0
 19 13  1  0
 25 20  1  0
M  END
>  <pIC50>  (426) 
6.82

>  <ChEMBL_ID>  (426) 
CHEMBL385392

>  <document_journal>  (426) 
J. Med. Chem.

>  <bao_endpoint>  (426) 
BAO_0000190

>  <potential_duplicate>  (426) 
False

>  <uo_units>  (426) 
UO_0000065

>  <canonical_smiles>  (426) 
C[C@H]1[C@@H]2CC[C@@H](CN2CC[C@@]1(C)c3cccc(O)c3)c4ccccc4

>  <parent_molecule_chembl_id>  (426) 
CHEMBL385392

>  <assay_type>  (426) 
F

>  <src_id>  (426) 
1

>  <ligand_efficiency>  (426) 
None

>  <standard_flag>  (426) 
True

>  <molecule_chembl_id>  (426) 
CHEMBL385392

>  <target_organism>  (426) 
Homo sapiens

>  <standard_units>  (426) 
nM

>  <record_id>  (426) 
619720

>  <document_chembl_id>  (426) 
CHEMBL1137299

>  <bao_format>  (426) 
BAO_0000219

>  <data_validity_description>  (426) 
None

>  <activity_id>  (426) 
1796239

>  <standard_type>  (426) 
IC50

>  <target_chembl_id>  (426) 
CHEMBL233

>  <data_validity_comment>  (426) 
None

>  <published_value>  (426) 
150

>  <document_year>  (426) 
2006

>  <target_pref_name>  (426) 
Mu opioid receptor

>  <assay_chembl_id>  (426) 
CHEMBL909317

>  <standard_relation>  (426) 
=

>  <assay_description>  (426) 
Antagonist activity against human cloned mu opioid receptor expressed in CHO cells assessed as inhibition of loperamide-stimulated [35S]GTP-gamma-S binding

>  <published_relation>  (426) 
=

>  <standard_value>  (426) 
150

>  <qudt_units>  (426) 
http://www.openphacts.org/units/Nanomolar

>  <target_tax_id>  (426) 
9606

>  <bao_label>  (426) 
cell-based format

>  <published_units>  (426) 
nM

>  <pchembl_value>  (426) 
6.82

>  <published_type>  (426) 
IC50

>  <activity_comment>  (426) 
None

$$$$

     RDKit          

 25 28  0  0  0  0  0  0  0  0999 V2000
    0.0000    0.0000    0.0000 C   0  0  0  0  0  0  0  0  0  0  0  0
    0.0000    0.0000    0.0000 C   0  0  0  0  0  0  0  0  0  0  0  0
    0.0000    0.0000    0.0000 C   0  0  0  0  0  0  0  0  0  0  0  0
    0.0000    0.0000    0.0000 N   0  0  0  0  0  0  0  0  0  0  0  0
    0.0000    0.0000    0.0000 C   0  0  0  0  0  0  0  0  0  0  0  0
    0.0000    0.0000    0.0000 C   0  0  0  0  0  0  0  0  0  0  0  0
    0.0000    0.0000    0.0000 C   0  0  0  0  0  0  0  0  0  0  0  0
    0.0000    0.0000    0.0000 C   0  0  0  0  0  0  0  0  0  0  0  0
    0.0000    0.0000    0.0000 C   0  0  0  0  0  0  0  0  0  0  0  0
    0.0000    0.0000    0.0000 C   0  0  0  0  0  0  0  0  0  0  0  0
    0.0000    0.0000    0.0000 C   0  0  0  0  0  0  0  0  0  0  0  0
    0.0000    0.0000    0.0000 C   0  0  0  0  0  0  0  0  0  0  0  0
    0.0000    0.0000    0.0000 C   0  0  0  0  0  0  0  0  0  0  0  0
    0.0000    0.0000    0.0000 C   0  0  0  0  0  0  0  0  0  0  0  0
    0.0000    0.0000    0.0000 C   0  0  0  0  0  0  0  0  0  0  0  0
    0.0000    0.0000    0.0000 C   0  0  0  0  0  0  0  0  0  0  0  0
    0.0000    0.0000    0.0000 C   0  0  0  0  0  0  0  0  0  0  0  0
    0.0000    0.0000    0.0000 O   0  0  0  0  0  0  0  0  0  0  0  0
    0.0000    0.0000    0.0000 C   0  0  0  0  0  0  0  0  0  0  0  0
    0.0000    0.0000    0.0000 C   0  0  0  0  0  0  0  0  0  0  0  0
    0.0000    0.0000    0.0000 C   0  0  0  0  0  0  0  0  0  0  0  0
    0.0000    0.0000    0.0000 C   0  0  0  0  0  0  0  0  0  0  0  0
    0.0000    0.0000    0.0000 C   0  0  0  0  0  0  0  0  0  0  0  0
    0.0000    0.0000    0.0000 C   0  0  0  0  0  0  0  0  0  0  0  0
    0.0000    0.0000    0.0000 C   0  0  0  0  0  0  0  0  0  0  0  0
  1  2  1  0
  2  3  1  0
  3  4  1  0
  4  5  1  0
  5  6  1  0
  6  7  1  0
  7  8  1  0
  8  9  1  0
  9 10  1  0
 10 11  1  0
 11 12  1  0
 11 13  1  0
 13 14  2  0
 14 15  1  0
 15 16  2  0
 16 17  1  0
 17 18  1  0
 17 19  2  0
  6 20  1  0
 20 21  2  0
 21 22  1  0
 22 23  2  0
 23 24  1  0
 24 25  2  0
 11  2  1  0
  9  4  1  0
 19 13  1  0
 25 20  1  0
M  END
>  <pIC50>  (427) 
6.96

>  <ChEMBL_ID>  (427) 
CHEMBL374559

>  <document_journal>  (427) 
J. Med. Chem.

>  <bao_endpoint>  (427) 
BAO_0000190

>  <potential_duplicate>  (427) 
False

>  <uo_units>  (427) 
UO_0000065

>  <canonical_smiles>  (427) 
C[C@H]1CN2C[C@H](CC[C@H]2C[C@@]1(C)c3cccc(O)c3)c4ccccc4

>  <parent_molecule_chembl_id>  (427) 
CHEMBL374559

>  <assay_type>  (427) 
F

>  <src_id>  (427) 
1

>  <ligand_efficiency>  (427) 
None

>  <standard_flag>  (427) 
True

>  <molecule_chembl_id>  (427) 
CHEMBL374559

>  <target_organism>  (427) 
Homo sapiens

>  <standard_units>  (427) 
nM

>  <record_id>  (427) 
619719

>  <document_chembl_id>  (427) 
CHEMBL1137299

>  <bao_format>  (427) 
BAO_0000219

>  <data_validity_description>  (427) 
None

>  <activity_id>  (427) 
1796240

>  <standard_type>  (427) 
IC50

>  <target_chembl_id>  (427) 
CHEMBL233

>  <data_validity_comment>  (427) 
None

>  <published_value>  (427) 
110

>  <document_year>  (427) 
2006

>  <target_pref_name>  (427) 
Mu opioid receptor

>  <assay_chembl_id>  (427) 
CHEMBL909317

>  <standard_relation>  (427) 
=

>  <assay_description>  (427) 
Antagonist activity against human cloned mu opioid receptor expressed in CHO cells assessed as inhibition of loperamide-stimulated [35S]GTP-gamma-S binding

>  <published_relation>  (427) 
=

>  <standard_value>  (427) 
110

>  <qudt_units>  (427) 
http://www.openphacts.org/units/Nanomolar

>  <target_tax_id>  (427) 
9606

>  <bao_label>  (427) 
cell-based format

>  <published_units>  (427) 
nM

>  <pchembl_value>  (427) 
6.96

>  <published_type>  (427) 
IC50

>  <activity_comment>  (427) 
None

$$$$

     RDKit          

 25 28  0  0  0  0  0  0  0  0999 V2000
    0.0000    0.0000    0.0000 C   0  0  0  0  0  0  0  0  0  0  0  0
    0.0000    0.0000    0.0000 C   0  0  0  0  0  0  0  0  0  0  0  0
    0.0000    0.0000    0.0000 C   0  0  0  0  0  0  0  0  0  0  0  0
    0.0000    0.0000    0.0000 N   0  0  0  0  0  0  0  0  0  0  0  0
    0.0000    0.0000    0.0000 C   0  0  0  0  0  0  0  0  0  0  0  0
    0.0000    0.0000    0.0000 C   0  0  0  0  0  0  0  0  0  0  0  0
    0.0000    0.0000    0.0000 C   0  0  0  0  0  0  0  0  0  0  0  0
    0.0000    0.0000    0.0000 C   0  0  0  0  0  0  0  0  0  0  0  0
    0.0000    0.0000    0.0000 C   0  0  0  0  0  0  0  0  0  0  0  0
    0.0000    0.0000    0.0000 C   0  0  0  0  0  0  0  0  0  0  0  0
    0.0000    0.0000    0.0000 C   0  0  0  0  0  0  0  0  0  0  0  0
    0.0000    0.0000    0.0000 C   0  0  0  0  0  0  0  0  0  0  0  0
    0.0000    0.0000    0.0000 C   0  0  0  0  0  0  0  0  0  0  0  0
    0.0000    0.0000    0.0000 C   0  0  0  0  0  0  0  0  0  0  0  0
    0.0000    0.0000    0.0000 C   0  0  0  0  0  0  0  0  0  0  0  0
    0.0000    0.0000    0.0000 C   0  0  0  0  0  0  0  0  0  0  0  0
    0.0000    0.0000    0.0000 C   0  0  0  0  0  0  0  0  0  0  0  0
    0.0000    0.0000    0.0000 O   0  0  0  0  0  0  0  0  0  0  0  0
    0.0000    0.0000    0.0000 C   0  0  0  0  0  0  0  0  0  0  0  0
    0.0000    0.0000    0.0000 C   0  0  0  0  0  0  0  0  0  0  0  0
    0.0000    0.0000    0.0000 C   0  0  0  0  0  0  0  0  0  0  0  0
    0.0000    0.0000    0.0000 C   0  0  0  0  0  0  0  0  0  0  0  0
    0.0000    0.0000    0.0000 C   0  0  0  0  0  0  0  0  0  0  0  0
    0.0000    0.0000    0.0000 C   0  0  0  0  0  0  0  0  0  0  0  0
    0.0000    0.0000    0.0000 C   0  0  0  0  0  0  0  0  0  0  0  0
  1  2  1  0
  2  3  1  0
  3  4  1  0
  4  5  1  0
  5  6  1  0
  6  7  1  0
  7  8  1  0
  8  9  1  0
  9 10  1  0
 10 11  1  0
 11 12  1  0
 11 13  1  0
 13 14  2  0
 14 15  1  0
 15 16  2  0
 16 17  1  0
 17 18  1  0
 17 19  2  0
  6 20  1  0
 20 21  2  0
 21 22  1  0
 22 23  2  0
 23 24  1  0
 24 25  2  0
 11  2  1  0
  9  4  1  0
 19 13  1  0
 25 20  1  0
M  END
>  <pIC50>  (428) 
6.68

>  <ChEMBL_ID>  (428) 
CHEMBL387248

>  <document_journal>  (428) 
J. Med. Chem.

>  <bao_endpoint>  (428) 
BAO_0000190

>  <potential_duplicate>  (428) 
False

>  <uo_units>  (428) 
UO_0000065

>  <canonical_smiles>  (428) 
C[C@H]1CN2C[C@@H](CC[C@@H]2C[C@@]1(C)c3cccc(O)c3)c4ccccc4

>  <parent_molecule_chembl_id>  (428) 
CHEMBL387248

>  <assay_type>  (428) 
F

>  <src_id>  (428) 
1

>  <ligand_efficiency>  (428) 
None

>  <standard_flag>  (428) 
True

>  <molecule_chembl_id>  (428) 
CHEMBL387248

>  <target_organism>  (428) 
Homo sapiens

>  <standard_units>  (428) 
nM

>  <record_id>  (428) 
619716

>  <document_chembl_id>  (428) 
CHEMBL1137299

>  <bao_format>  (428) 
BAO_0000219

>  <data_validity_description>  (428) 
None

>  <activity_id>  (428) 
1796243

>  <standard_type>  (428) 
IC50

>  <target_chembl_id>  (428) 
CHEMBL233

>  <data_validity_comment>  (428) 
None

>  <published_value>  (428) 
210

>  <document_year>  (428) 
2006

>  <target_pref_name>  (428) 
Mu opioid receptor

>  <assay_chembl_id>  (428) 
CHEMBL909317

>  <standard_relation>  (428) 
=

>  <assay_description>  (428) 
Antagonist activity against human cloned mu opioid receptor expressed in CHO cells assessed as inhibition of loperamide-stimulated [35S]GTP-gamma-S binding

>  <published_relation>  (428) 
=

>  <standard_value>  (428) 
210

>  <qudt_units>  (428) 
http://www.openphacts.org/units/Nanomolar

>  <target_tax_id>  (428) 
9606

>  <bao_label>  (428) 
cell-based format

>  <published_units>  (428) 
nM

>  <pchembl_value>  (428) 
6.68

>  <published_type>  (428) 
IC50

>  <activity_comment>  (428) 
None

$$$$

     RDKit          

 59 68  0  0  0  0  0  0  0  0999 V2000
    0.0000    0.0000    0.0000 O   0  0  0  0  0  0  0  0  0  0  0  0
    0.0000    0.0000    0.0000 C   0  0  0  0  0  0  0  0  0  0  0  0
    0.0000    0.0000    0.0000 C   0  0  0  0  0  0  0  0  0  0  0  0
    0.0000    0.0000    0.0000 C   0  0  0  0  0  0  0  0  0  0  0  0
    0.0000    0.0000    0.0000 C   0  0  0  0  0  0  0  0  0  0  0  0
    0.0000    0.0000    0.0000 O   0  0  0  0  0  0  0  0  0  0  0  0
    0.0000    0.0000    0.0000 C   0  0  0  0  0  0  0  0  0  0  0  0
    0.0000    0.0000    0.0000 O   0  0  0  0  0  0  0  0  0  0  0  0
    0.0000    0.0000    0.0000 C   0  0  0  0  0  0  0  0  0  0  0  0
    0.0000    0.0000    0.0000 C   0  0  0  0  0  0  0  0  0  0  0  0
    0.0000    0.0000    0.0000 O   0  0  0  0  0  0  0  0  0  0  0  0
    0.0000    0.0000    0.0000 C   0  0  0  0  0  0  0  0  0  0  0  0
    0.0000    0.0000    0.0000 O   0  0  0  0  0  0  0  0  0  0  0  0
    0.0000    0.0000    0.0000 C   0  0  0  0  0  0  0  0  0  0  0  0
    0.0000    0.0000    0.0000 C   0  0  0  0  0  0  0  0  0  0  0  0
    0.0000    0.0000    0.0000 C   0  0  0  0  0  0  0  0  0  0  0  0
    0.0000    0.0000    0.0000 C   0  0  0  0  0  0  0  0  0  0  0  0
    0.0000    0.0000    0.0000 C   0  0  0  0  0  0  0  0  0  0  0  0
    0.0000    0.0000    0.0000 C   0  0  0  0  0  0  0  0  0  0  0  0
    0.0000    0.0000    0.0000 C   0  0  0  0  0  0  0  0  0  0  0  0
    0.0000    0.0000    0.0000 C   0  0  0  0  0  0  0  0  0  0  0  0
    0.0000    0.0000    0.0000 C   0  0  0  0  0  0  0  0  0  0  0  0
    0.0000    0.0000    0.0000 O   0  0  0  0  0  0  0  0  0  0  0  0
    0.0000    0.0000    0.0000 O   0  0  0  0  0  0  0  0  0  0  0  0
    0.0000    0.0000    0.0000 C   0  0  0  0  0  0  0  0  0  0  0  0
    0.0000    0.0000    0.0000 C   0  0  0  0  0  0  0  0  0  0  0  0
    0.0000    0.0000    0.0000 C   0  0  0  0  0  0  0  0  0  0  0  0
    0.0000    0.0000    0.0000 C   0  0  0  0  0  0  0  0  0  0  0  0
    0.0000    0.0000    0.0000 C   0  0  0  0  0  0  0  0  0  0  0  0
    0.0000    0.0000    0.0000 C   0  0  0  0  0  0  0  0  0  0  0  0
    0.0000    0.0000    0.0000 C   0  0  0  0  0  0  0  0  0  0  0  0
    0.0000    0.0000    0.0000 C   0  0  0  0  0  0  0  0  0  0  0  0
    0.0000    0.0000    0.0000 C   0  0  0  0  0  0  0  0  0  0  0  0
    0.0000    0.0000    0.0000 C   0  0  0  0  0  0  0  0  0  0  0  0
    0.0000    0.0000    0.0000 C   0  0  0  0  0  0  0  0  0  0  0  0
    0.0000    0.0000    0.0000 C   0  0  0  0  0  0  0  0  0  0  0  0
    0.0000    0.0000    0.0000 C   0  0  0  0  0  0  0  0  0  0  0  0
    0.0000    0.0000    0.0000 C   0  0  0  0  0  0  0  0  0  0  0  0
    0.0000    0.0000    0.0000 N   0  0  0  0  0  0  0  0  0  0  0  0
    0.0000    0.0000    0.0000 C   0  0  0  0  0  0  0  0  0  0  0  0
    0.0000    0.0000    0.0000 C   0  0  0  0  0  0  0  0  0  0  0  0
    0.0000    0.0000    0.0000 C   0  0  0  0  0  0  0  0  0  0  0  0
    0.0000    0.0000    0.0000 C   0  0  0  0  0  0  0  0  0  0  0  0
    0.0000    0.0000    0.0000 C   0  0  0  0  0  0  0  0  0  0  0  0
    0.0000    0.0000    0.0000 C   0  0  0  0  0  0  0  0  0  0  0  0
    0.0000    0.0000    0.0000 C   0  0  0  0  0  0  0  0  0  0  0  0
    0.0000    0.0000    0.0000 C   0  0  0  0  0  0  0  0  0  0  0  0
    0.0000    0.0000    0.0000 C   0  0  0  0  0  0  0  0  0  0  0  0
    0.0000    0.0000    0.0000 C   0  0  0  0  0  0  0  0  0  0  0  0
    0.0000    0.0000    0.0000 C   0  0  0  0  0  0  0  0  0  0  0  0
    0.0000    0.0000    0.0000 C   0  0  0  0  0  0  0  0  0  0  0  0
    0.0000    0.0000    0.0000 N   0  0  0  0  0  0  0  0  0  0  0  0
    0.0000    0.0000    0.0000 C   0  0  0  0  0  0  0  0  0  0  0  0
    0.0000    0.0000    0.0000 C   0  0  0  0  0  0  0  0  0  0  0  0
    0.0000    0.0000    0.0000 C   0  0  0  0  0  0  0  0  0  0  0  0
    0.0000    0.0000    0.0000 C   0  0  0  0  0  0  0  0  0  0  0  0
    0.0000    0.0000    0.0000 C   0  0  0  0  0  0  0  0  0  0  0  0
    0.0000    0.0000    0.0000 C   0  0  0  0  0  0  0  0  0  0  0  0
    0.0000    0.0000    0.0000 C   0  0  0  0  0  0  0  0  0  0  0  0
  1  2  1  0
  2  3  1  0
  3  4  1  0
  4  5  1  0
  5  6  2  0
  5  7  1  0
  7  8  1  0
  8  9  1  0
  9 10  1  0
 10 11  1  0
 11 12  1  0
 12 13  2  0
 12 14  1  0
 14 15  1  0
 15 16  1  0
 16 17  1  0
 17 18  1  0
 18 19  1  0
 19 20  1  0
 20 21  1  0
 21 22  1  0
 22 23  2  0
 22 24  1  0
 24 25  1  0
 25 26  2  0
 26 27  1  0
 27 28  2  0
 28 29  1  0
 29 30  1  0
 30 31  1  0
 31 32  1  0
 32 33  1  0
 33 34  1  0
 34 35  1  0
 35 36  1  0
 36 37  1  0
 37 38  1  0
 38 39  1  0
 39 40  1  0
 40 41  1  0
 41 42  1  0
 42 43  1  0
 43 44  1  0
 36 45  1  0
 45 46  2  0
 10 47  2  0
 47 48  1  0
 48 49  2  0
 49 50  1  0
 50 51  1  0
 51 52  1  0
 52 53  1  0
 53 54  1  0
 54 55  2  0
 52 56  1  0
 56 57  1  0
 57 58  1  0
 58 59  1  0
 51  2  1  0
 58  2  1  0
 58  7  1  0
 59  9  2  0
 46 25  1  0
 45 28  1  0
 39 30  1  0
 36 31  1  0
 44 41  1  0
 59 49  1  0
M  END
>  <pIC50>  (429) 
7.6

>  <ChEMBL_ID>  (429) 
CHEMBL2113275

>  <document_journal>  (429) 
J. Med. Chem.

>  <bao_endpoint>  (429) 
BAO_0000190

>  <potential_duplicate>  (429) 
False

>  <uo_units>  (429) 
UO_0000065

>  <canonical_smiles>  (429) 
O[C@]12CCC(=O)[C@@H]3Oc4c(OC(=O)CCCCCCCCC(=O)Oc5ccc6C[C@@H]7C8CCCC[C@]8(CCN7CC9CCC9)c6c5)ccc%10C[C@H]1N(CC=C)CC[C@@]23c4%10

>  <parent_molecule_chembl_id>  (429) 
CHEMBL2113275

>  <assay_type>  (429) 
F

>  <src_id>  (429) 
1

>  <ligand_efficiency>  (429) 
None

>  <standard_flag>  (429) 
True

>  <molecule_chembl_id>  (429) 
CHEMBL2113275

>  <target_organism>  (429) 
Homo sapiens

>  <standard_units>  (429) 
nM

>  <record_id>  (429) 
635249

>  <document_chembl_id>  (429) 
CHEMBL1147138

>  <bao_format>  (429) 
BAO_0000219

>  <data_validity_description>  (429) 
None

>  <activity_id>  (429) 
1859903

>  <standard_type>  (429) 
IC50

>  <target_chembl_id>  (429) 
CHEMBL233

>  <data_validity_comment>  (429) 
None

>  <published_value>  (429) 
25

>  <document_year>  (429) 
2007

>  <target_pref_name>  (429) 
Mu opioid receptor

>  <assay_chembl_id>  (429) 
CHEMBL919398

>  <standard_relation>  (429) 
=

>  <assay_description>  (429) 
Agonist activity at human opioid gamma receptor expressed in CHO cells assessed as inhibition of DAGO-stimulated [35S]GTPgammaS binding

>  <published_relation>  (429) 
=

>  <standard_value>  (429) 
25

>  <qudt_units>  (429) 
http://www.openphacts.org/units/Nanomolar

>  <target_tax_id>  (429) 
9606

>  <bao_label>  (429) 
cell-based format

>  <published_units>  (429) 
nM

>  <pchembl_value>  (429) 
7.6

>  <published_type>  (429) 
IC50

>  <activity_comment>  (429) 
None

$$$$

     RDKit          

 60 70  0  0  0  0  0  0  0  0999 V2000
    0.0000    0.0000    0.0000 O   0  0  0  0  0  0  0  0  0  0  0  0
    0.0000    0.0000    0.0000 C   0  0  0  0  0  0  0  0  0  0  0  0
    0.0000    0.0000    0.0000 C   0  0  0  0  0  0  0  0  0  0  0  0
    0.0000    0.0000    0.0000 C   0  0  0  0  0  0  0  0  0  0  0  0
    0.0000    0.0000    0.0000 C   0  0  0  0  0  0  0  0  0  0  0  0
    0.0000    0.0000    0.0000 O   0  0  0  0  0  0  0  0  0  0  0  0
    0.0000    0.0000    0.0000 C   0  0  0  0  0  0  0  0  0  0  0  0
    0.0000    0.0000    0.0000 O   0  0  0  0  0  0  0  0  0  0  0  0
    0.0000    0.0000    0.0000 C   0  0  0  0  0  0  0  0  0  0  0  0
    0.0000    0.0000    0.0000 C   0  0  0  0  0  0  0  0  0  0  0  0
    0.0000    0.0000    0.0000 O   0  0  0  0  0  0  0  0  0  0  0  0
    0.0000    0.0000    0.0000 C   0  0  0  0  0  0  0  0  0  0  0  0
    0.0000    0.0000    0.0000 O   0  0  0  0  0  0  0  0  0  0  0  0
    0.0000    0.0000    0.0000 C   0  0  0  0  0  0  0  0  0  0  0  0
    0.0000    0.0000    0.0000 C   0  0  0  0  0  0  0  0  0  0  0  0
    0.0000    0.0000    0.0000 C   0  0  0  0  0  0  0  0  0  0  0  0
    0.0000    0.0000    0.0000 C   0  0  0  0  0  0  0  0  0  0  0  0
    0.0000    0.0000    0.0000 C   0  0  0  0  0  0  0  0  0  0  0  0
    0.0000    0.0000    0.0000 C   0  0  0  0  0  0  0  0  0  0  0  0
    0.0000    0.0000    0.0000 C   0  0  0  0  0  0  0  0  0  0  0  0
    0.0000    0.0000    0.0000 C   0  0  0  0  0  0  0  0  0  0  0  0
    0.0000    0.0000    0.0000 C   0  0  0  0  0  0  0  0  0  0  0  0
    0.0000    0.0000    0.0000 O   0  0  0  0  0  0  0  0  0  0  0  0
    0.0000    0.0000    0.0000 O   0  0  0  0  0  0  0  0  0  0  0  0
    0.0000    0.0000    0.0000 C   0  0  0  0  0  0  0  0  0  0  0  0
    0.0000    0.0000    0.0000 C   0  0  0  0  0  0  0  0  0  0  0  0
    0.0000    0.0000    0.0000 C   0  0  0  0  0  0  0  0  0  0  0  0
    0.0000    0.0000    0.0000 C   0  0  0  0  0  0  0  0  0  0  0  0
    0.0000    0.0000    0.0000 C   0  0  0  0  0  0  0  0  0  0  0  0
    0.0000    0.0000    0.0000 C   0  0  0  0  0  0  0  0  0  0  0  0
    0.0000    0.0000    0.0000 C   0  0  0  0  0  0  0  0  0  0  0  0
    0.0000    0.0000    0.0000 C   0  0  0  0  0  0  0  0  0  0  0  0
    0.0000    0.0000    0.0000 C   0  0  0  0  0  0  0  0  0  0  0  0
    0.0000    0.0000    0.0000 C   0  0  0  0  0  0  0  0  0  0  0  0
    0.0000    0.0000    0.0000 C   0  0  0  0  0  0  0  0  0  0  0  0
    0.0000    0.0000    0.0000 C   0  0  0  0  0  0  0  0  0  0  0  0
    0.0000    0.0000    0.0000 C   0  0  0  0  0  0  0  0  0  0  0  0
    0.0000    0.0000    0.0000 C   0  0  0  0  0  0  0  0  0  0  0  0
    0.0000    0.0000    0.0000 N   0  0  0  0  0  0  0  0  0  0  0  0
    0.0000    0.0000    0.0000 C   0  0  0  0  0  0  0  0  0  0  0  0
    0.0000    0.0000    0.0000 C   0  0  0  0  0  0  0  0  0  0  0  0
    0.0000    0.0000    0.0000 C   0  0  0  0  0  0  0  0  0  0  0  0
    0.0000    0.0000    0.0000 C   0  0  0  0  0  0  0  0  0  0  0  0
    0.0000    0.0000    0.0000 C   0  0  0  0  0  0  0  0  0  0  0  0
    0.0000    0.0000    0.0000 C   0  0  0  0  0  0  0  0  0  0  0  0
    0.0000    0.0000    0.0000 C   0  0  0  0  0  0  0  0  0  0  0  0
    0.0000    0.0000    0.0000 C   0  0  0  0  0  0  0  0  0  0  0  0
    0.0000    0.0000    0.0000 C   0  0  0  0  0  0  0  0  0  0  0  0
    0.0000    0.0000    0.0000 C   0  0  0  0  0  0  0  0  0  0  0  0
    0.0000    0.0000    0.0000 C   0  0  0  0  0  0  0  0  0  0  0  0
    0.0000    0.0000    0.0000 C   0  0  0  0  0  0  0  0  0  0  0  0
    0.0000    0.0000    0.0000 N   0  0  0  0  0  0  0  0  0  0  0  0
    0.0000    0.0000    0.0000 C   0  0  0  0  0  0  0  0  0  0  0  0
    0.0000    0.0000    0.0000 C   0  0  0  0  0  0  0  0  0  0  0  0
    0.0000    0.0000    0.0000 C   0  0  0  0  0  0  0  0  0  0  0  0
    0.0000    0.0000    0.0000 C   0  0  0  0  0  0  0  0  0  0  0  0
    0.0000    0.0000    0.0000 C   0  0  0  0  0  0  0  0  0  0  0  0
    0.0000    0.0000    0.0000 C   0  0  0  0  0  0  0  0  0  0  0  0
    0.0000    0.0000    0.0000 C   0  0  0  0  0  0  0  0  0  0  0  0
    0.0000    0.0000    0.0000 C   0  0  0  0  0  0  0  0  0  0  0  0
  1  2  1  0
  2  3  1  0
  3  4  1  0
  4  5  1  0
  5  6  2  0
  5  7  1  0
  7  8  1  0
  8  9  1  0
  9 10  1  0
 10 11  1  0
 11 12  1  0
 12 13  2  0
 12 14  1  0
 14 15  1  0
 15 16  1  0
 16 17  1  0
 17 18  1  0
 18 19  1  0
 19 20  1  0
 20 21  1  0
 21 22  1  0
 22 23  2  0
 22 24  1  0
 24 25  1  0
 25 26  2  0
 26 27  1  0
 27 28  2  0
 28 29  1  0
 29 30  1  0
 30 31  1  0
 31 32  1  0
 32 33  1  0
 33 34  1  0
 34 35  1  0
 35 36  1  0
 36 37  1  0
 37 38  1  0
 38 39  1  0
 39 40  1  0
 40 41  1  0
 41 42  1  0
 42 43  1  0
 43 44  1  0
 36 45  1  0
 45 46  2  0
 10 47  2  0
 47 48  1  0
 48 49  2  0
 49 50  1  0
 50 51  1  0
 51 52  1  0
 52 53  1  0
 53 54  1  0
 54 55  1  0
 55 56  1  0
 52 57  1  0
 57 58  1  0
 58 59  1  0
 59 60  1  0
 51  2  1  0
 59  2  1  0
 59  7  1  0
 60  9  2  0
 46 25  1  0
 45 28  1  0
 39 30  1  0
 36 31  1  0
 44 41  1  0
 60 49  1  0
 56 54  1  0
M  END
>  <pIC50>  (430) 
6.8

>  <ChEMBL_ID>  (430) 
CHEMBL224014

>  <document_journal>  (430) 
J. Med. Chem.

>  <bao_endpoint>  (430) 
BAO_0000190

>  <potential_duplicate>  (430) 
False

>  <uo_units>  (430) 
UO_0000065

>  <canonical_smiles>  (430) 
O[C@]12CCC(=O)[C@@H]3Oc4c(OC(=O)CCCCCCCCC(=O)Oc5ccc6C[C@@H]7C8CCCC[C@]8(CCN7CC9CCC9)c6c5)ccc%10C[C@H]1N(CC%11CC%11)CC[C@@]23c4%10

>  <parent_molecule_chembl_id>  (430) 
CHEMBL224014

>  <assay_type>  (430) 
F

>  <src_id>  (430) 
1

>  <ligand_efficiency>  (430) 
None

>  <standard_flag>  (430) 
True

>  <molecule_chembl_id>  (430) 
CHEMBL224014

>  <target_organism>  (430) 
Homo sapiens

>  <standard_units>  (430) 
nM

>  <record_id>  (430) 
635248

>  <document_chembl_id>  (430) 
CHEMBL1147138

>  <bao_format>  (430) 
BAO_0000219

>  <data_validity_description>  (430) 
None

>  <activity_id>  (430) 
1859904

>  <standard_type>  (430) 
IC50

>  <target_chembl_id>  (430) 
CHEMBL233

>  <data_validity_comment>  (430) 
None

>  <published_value>  (430) 
160

>  <document_year>  (430) 
2007

>  <target_pref_name>  (430) 
Mu opioid receptor

>  <assay_chembl_id>  (430) 
CHEMBL919398

>  <standard_relation>  (430) 
=

>  <assay_description>  (430) 
Agonist activity at human opioid gamma receptor expressed in CHO cells assessed as inhibition of DAGO-stimulated [35S]GTPgammaS binding

>  <published_relation>  (430) 
=

>  <standard_value>  (430) 
160

>  <qudt_units>  (430) 
http://www.openphacts.org/units/Nanomolar

>  <target_tax_id>  (430) 
9606

>  <bao_label>  (430) 
cell-based format

>  <published_units>  (430) 
nM

>  <pchembl_value>  (430) 
6.8

>  <published_type>  (430) 
IC50

>  <activity_comment>  (430) 
None

$$$$

     RDKit          

 61 71  0  0  0  0  0  0  0  0999 V2000
    0.0000    0.0000    0.0000 O   0  0  0  0  0  0  0  0  0  0  0  0
    0.0000    0.0000    0.0000 C   0  0  0  0  0  0  0  0  0  0  0  0
    0.0000    0.0000    0.0000 C   0  0  0  0  0  0  0  0  0  0  0  0
    0.0000    0.0000    0.0000 C   0  0  0  0  0  0  0  0  0  0  0  0
    0.0000    0.0000    0.0000 C   0  0  0  0  0  0  0  0  0  0  0  0
    0.0000    0.0000    0.0000 O   0  0  0  0  0  0  0  0  0  0  0  0
    0.0000    0.0000    0.0000 C   0  0  0  0  0  0  0  0  0  0  0  0
    0.0000    0.0000    0.0000 C   0  0  0  0  0  0  0  0  0  0  0  0
    0.0000    0.0000    0.0000 C   0  0  0  0  0  0  0  0  0  0  0  0
    0.0000    0.0000    0.0000 C   0  0  0  0  0  0  0  0  0  0  0  0
    0.0000    0.0000    0.0000 C   0  0  0  0  0  0  0  0  0  0  0  0
    0.0000    0.0000    0.0000 C   0  0  0  0  0  0  0  0  0  0  0  0
    0.0000    0.0000    0.0000 O   0  0  0  0  0  0  0  0  0  0  0  0
    0.0000    0.0000    0.0000 C   0  0  0  0  0  0  0  0  0  0  0  0
    0.0000    0.0000    0.0000 O   0  0  0  0  0  0  0  0  0  0  0  0
    0.0000    0.0000    0.0000 C   0  0  0  0  0  0  0  0  0  0  0  0
    0.0000    0.0000    0.0000 C   0  0  0  0  0  0  0  0  0  0  0  0
    0.0000    0.0000    0.0000 C   0  0  0  0  0  0  0  0  0  0  0  0
    0.0000    0.0000    0.0000 C   0  0  0  0  0  0  0  0  0  0  0  0
    0.0000    0.0000    0.0000 C   0  0  0  0  0  0  0  0  0  0  0  0
    0.0000    0.0000    0.0000 C   0  0  0  0  0  0  0  0  0  0  0  0
    0.0000    0.0000    0.0000 C   0  0  0  0  0  0  0  0  0  0  0  0
    0.0000    0.0000    0.0000 C   0  0  0  0  0  0  0  0  0  0  0  0
    0.0000    0.0000    0.0000 C   0  0  0  0  0  0  0  0  0  0  0  0
    0.0000    0.0000    0.0000 O   0  0  0  0  0  0  0  0  0  0  0  0
    0.0000    0.0000    0.0000 O   0  0  0  0  0  0  0  0  0  0  0  0
    0.0000    0.0000    0.0000 C   0  0  0  0  0  0  0  0  0  0  0  0
    0.0000    0.0000    0.0000 C   0  0  0  0  0  0  0  0  0  0  0  0
    0.0000    0.0000    0.0000 C   0  0  0  0  0  0  0  0  0  0  0  0
    0.0000    0.0000    0.0000 C   0  0  0  0  0  0  0  0  0  0  0  0
    0.0000    0.0000    0.0000 C   0  0  0  0  0  0  0  0  0  0  0  0
    0.0000    0.0000    0.0000 C   0  0  0  0  0  0  0  0  0  0  0  0
    0.0000    0.0000    0.0000 C   0  0  0  0  0  0  0  0  0  0  0  0
    0.0000    0.0000    0.0000 C   0  0  0  0  0  0  0  0  0  0  0  0
    0.0000    0.0000    0.0000 C   0  0  0  0  0  0  0  0  0  0  0  0
    0.0000    0.0000    0.0000 C   0  0  0  0  0  0  0  0  0  0  0  0
    0.0000    0.0000    0.0000 C   0  0  0  0  0  0  0  0  0  0  0  0
    0.0000    0.0000    0.0000 C   0  0  0  0  0  0  0  0  0  0  0  0
    0.0000    0.0000    0.0000 C   0  0  0  0  0  0  0  0  0  0  0  0
    0.0000    0.0000    0.0000 C   0  0  0  0  0  0  0  0  0  0  0  0
    0.0000    0.0000    0.0000 N   0  0  0  0  0  0  0  0  0  0  0  0
    0.0000    0.0000    0.0000 C   0  0  0  0  0  0  0  0  0  0  0  0
    0.0000    0.0000    0.0000 C   0  0  0  0  0  0  0  0  0  0  0  0
    0.0000    0.0000    0.0000 C   0  0  0  0  0  0  0  0  0  0  0  0
    0.0000    0.0000    0.0000 C   0  0  0  0  0  0  0  0  0  0  0  0
    0.0000    0.0000    0.0000 C   0  0  0  0  0  0  0  0  0  0  0  0
    0.0000    0.0000    0.0000 C   0  0  0  0  0  0  0  0  0  0  0  0
    0.0000    0.0000    0.0000 C   0  0  0  0  0  0  0  0  0  0  0  0
    0.0000    0.0000    0.0000 C   0  0  0  0  0  0  0  0  0  0  0  0
    0.0000    0.0000    0.0000 O   0  0  0  0  0  0  0  0  0  0  0  0
    0.0000    0.0000    0.0000 C   0  0  0  0  0  0  0  0  0  0  0  0
    0.0000    0.0000    0.0000 C   0  0  0  0  0  0  0  0  0  0  0  0
    0.0000    0.0000    0.0000 C   0  0  0  0  0  0  0  0  0  0  0  0
    0.0000    0.0000    0.0000 C   0  0  0  0  0  0  0  0  0  0  0  0
    0.0000    0.0000    0.0000 N   0  0  0  0  0  0  0  0  0  0  0  0
    0.0000    0.0000    0.0000 C   0  0  0  0  0  0  0  0  0  0  0  0
    0.0000    0.0000    0.0000 C   0  0  0  0  0  0  0  0  0  0  0  0
    0.0000    0.0000    0.0000 C   0  0  0  0  0  0  0  0  0  0  0  0
    0.0000    0.0000    0.0000 C   0  0  0  0  0  0  0  0  0  0  0  0
    0.0000    0.0000    0.0000 C   0  0  0  0  0  0  0  0  0  0  0  0
    0.0000    0.0000    0.0000 C   0  0  0  0  0  0  0  0  0  0  0  0
  1  2  1  0
  2  3  1  0
  3  4  1  0
  4  5  1  0
  5  6  1  0
  5  7  1  0
  7  8  1  0
  8  9  1  0
  9 10  2  0
 10 11  1  0
 11 12  2  0
 12 13  1  0
 13 14  1  0
 14 15  2  0
 14 16  1  0
 16 17  1  0
 17 18  1  0
 18 19  1  0
 19 20  1  0
 20 21  1  0
 21 22  1  0
 22 23  1  0
 23 24  1  0
 24 25  2  0
 24 26  1  0
 26 27  1  0
 27 28  2  0
 28 29  1  0
 29 30  2  0
 30 31  1  0
 31 32  1  0
 32 33  1  0
 33 34  1  0
 34 35  1  0
 35 36  1  0
 36 37  1  0
 37 38  1  0
 38 39  1  0
 39 40  1  0
 40 41  1  0
 41 42  1  0
 42 43  1  0
 43 44  1  0
 44 45  1  0
 45 46  1  0
 38 47  1  0
 47 48  2  0
 12 49  1  0
 49 50  1  0
 50 51  1  0
 51 52  1  0
 52 53  1  0
 53 54  1  0
 54 55  1  0
 55 56  1  0
 56 57  1  0
 57 58  1  0
 58 59  1  0
 59 60  1  0
 52 61  1  0
 51  2  1  0
 52  5  1  0
 55  7  1  0
 61  9  1  0
 48 27  1  0
 47 30  1  0
 41 32  1  0
 38 33  1  0
 46 43  1  0
 61 49  2  0
 60 57  1  0
M  END
>  <pIC50>  (431) 
7.75

>  <ChEMBL_ID>  (431) 
CHEMBL224671

>  <document_journal>  (431) 
J. Med. Chem.

>  <bao_endpoint>  (431) 
BAO_0000190

>  <potential_duplicate>  (431) 
False

>  <uo_units>  (431) 
UO_0000065

>  <canonical_smiles>  (431) 
O[C@@H]1CC[C@@]2(O)[C@H]3Cc4ccc(OC(=O)CCCCCCCCC(=O)Oc5ccc6C[C@@H]7C8CCCC[C@]8(CCN7CC9CCC9)c6c5)c%10O[C@@H]1[C@]2(CCN3CC%11CCC%11)c4%10

>  <parent_molecule_chembl_id>  (431) 
CHEMBL224671

>  <assay_type>  (431) 
F

>  <src_id>  (431) 
1

>  <ligand_efficiency>  (431) 
None

>  <standard_flag>  (431) 
True

>  <molecule_chembl_id>  (431) 
CHEMBL224671

>  <target_organism>  (431) 
Homo sapiens

>  <standard_units>  (431) 
nM

>  <record_id>  (431) 
635247

>  <document_chembl_id>  (431) 
CHEMBL1147138

>  <bao_format>  (431) 
BAO_0000219

>  <data_validity_description>  (431) 
None

>  <activity_id>  (431) 
1859905

>  <standard_type>  (431) 
IC50

>  <target_chembl_id>  (431) 
CHEMBL233

>  <data_validity_comment>  (431) 
None

>  <published_value>  (431) 
18

>  <document_year>  (431) 
2007

>  <target_pref_name>  (431) 
Mu opioid receptor

>  <assay_chembl_id>  (431) 
CHEMBL919398

>  <standard_relation>  (431) 
=

>  <assay_description>  (431) 
Agonist activity at human opioid gamma receptor expressed in CHO cells assessed as inhibition of DAGO-stimulated [35S]GTPgammaS binding

>  <published_relation>  (431) 
=

>  <standard_value>  (431) 
18

>  <qudt_units>  (431) 
http://www.openphacts.org/units/Nanomolar

>  <target_tax_id>  (431) 
9606

>  <bao_label>  (431) 
cell-based format

>  <published_units>  (431) 
nM

>  <pchembl_value>  (431) 
7.75

>  <published_type>  (431) 
IC50

>  <activity_comment>  (431) 
None

$$$$

     RDKit          

 30 36  0  0  0  0  0  0  0  0999 V2000
    0.0000    0.0000    0.0000 C   0  0  0  0  0  0  0  0  0  0  0  0
    0.0000    0.0000    0.0000 O   0  0  0  0  0  0  0  0  0  0  0  0
    0.0000    0.0000    0.0000 C   0  0  0  0  0  0  0  0  0  0  0  0
    0.0000    0.0000    0.0000 C   0  0  0  0  0  0  0  0  0  0  0  0
    0.0000    0.0000    0.0000 C   0  0  0  0  0  0  0  0  0  0  0  0
    0.0000    0.0000    0.0000 C   0  0  0  0  0  0  0  0  0  0  0  0
    0.0000    0.0000    0.0000 C   0  0  0  0  0  0  0  0  0  0  0  0
    0.0000    0.0000    0.0000 C   0  0  0  0  0  0  0  0  0  0  0  0
    0.0000    0.0000    0.0000 C   0  0  0  0  0  0  0  0  0  0  0  0
    0.0000    0.0000    0.0000 C   0  0  0  0  0  0  0  0  0  0  0  0
    0.0000    0.0000    0.0000 C   0  0  0  0  0  0  0  0  0  0  0  0
    0.0000    0.0000    0.0000 C   0  0  0  0  0  0  0  0  0  0  0  0
    0.0000    0.0000    0.0000 C   0  0  0  0  0  0  0  0  0  0  0  0
    0.0000    0.0000    0.0000 C   0  0  0  0  0  0  0  0  0  0  0  0
    0.0000    0.0000    0.0000 C   0  0  0  0  0  0  0  0  0  0  0  0
    0.0000    0.0000    0.0000 C   0  0  0  0  0  0  0  0  0  0  0  0
    0.0000    0.0000    0.0000 N   0  0  0  0  0  0  0  0  0  0  0  0
    0.0000    0.0000    0.0000 C   0  0  0  0  0  0  0  0  0  0  0  0
    0.0000    0.0000    0.0000 C   0  0  0  0  0  0  0  0  0  0  0  0
    0.0000    0.0000    0.0000 C   0  0  0  0  0  0  0  0  0  0  0  0
    0.0000    0.0000    0.0000 C   0  0  0  0  0  0  0  0  0  0  0  0
    0.0000    0.0000    0.0000 C   0  0  0  0  0  0  0  0  0  0  0  0
    0.0000    0.0000    0.0000 C   0  0  0  0  0  0  0  0  0  0  0  0
    0.0000    0.0000    0.0000 N   0  0  0  0  0  0  0  0  0  0  0  0
    0.0000    0.0000    0.0000 C   0  0  0  0  0  0  0  0  0  0  0  0
    0.0000    0.0000    0.0000 C   0  0  0  0  0  0  0  0  0  0  0  0
    0.0000    0.0000    0.0000 C   0  0  0  0  0  0  0  0  0  0  0  0
    0.0000    0.0000    0.0000 C   0  0  0  0  0  0  0  0  0  0  0  0
    0.0000    0.0000    0.0000 C   0  0  0  0  0  0  0  0  0  0  0  0
    0.0000    0.0000    0.0000 C   0  0  0  0  0  0  0  0  0  0  0  0
  1  2  1  0
  2  3  1  0
  3  4  2  0
  4  5  1  0
  5  6  2  0
  6  7  1  0
  7  8  1  0
  8  9  1  0
  9 10  1  0
 10 11  1  0
 11 12  2  0
 12 13  1  0
 13 14  1  0
 14 15  1  0
 15 16  1  0
 16 17  1  0
 17 18  1  0
 18 19  1  0
 19 20  1  0
 20 21  1  0
 14 22  1  0
 22 23  2  0
 12 24  1  0
 24 25  1  0
 25 26  2  0
 26 27  1  0
 27 28  2  0
 28 29  1  0
 29 30  2  0
 23  3  1  0
 22  6  1  0
 17  8  1  0
 14  9  1  0
 30 11  1  0
 21 19  1  0
 30 25  1  0
M  END
>  <pIC50>  (432) 
6.36

>  <ChEMBL_ID>  (432) 
CHEMBL226113

>  <document_journal>  (432) 
J. Med. Chem.

>  <bao_endpoint>  (432) 
BAO_0000190

>  <potential_duplicate>  (432) 
False

>  <uo_units>  (432) 
UO_0000065

>  <canonical_smiles>  (432) 
COc1ccc2C[C@@H]3[C@@H]4Cc5c(C[C@]4(CCN3CC6CC6)c2c1)[nH]c7ccccc57

>  <parent_molecule_chembl_id>  (432) 
CHEMBL226113

>  <assay_type>  (432) 
F

>  <src_id>  (432) 
1

>  <ligand_efficiency>  (432) 
None

>  <standard_flag>  (432) 
True

>  <molecule_chembl_id>  (432) 
CHEMBL226113

>  <target_organism>  (432) 
Homo sapiens

>  <standard_units>  (432) 
nM

>  <record_id>  (432) 
638477

>  <document_chembl_id>  (432) 
CHEMBL1143667

>  <bao_format>  (432) 
BAO_0000249

>  <data_validity_description>  (432) 
None

>  <activity_id>  (432) 
1882341

>  <standard_type>  (432) 
IC50

>  <target_chembl_id>  (432) 
CHEMBL233

>  <data_validity_comment>  (432) 
None

>  <published_value>  (432) 
440

>  <document_year>  (432) 
2007

>  <target_pref_name>  (432) 
Mu opioid receptor

>  <assay_chembl_id>  (432) 
CHEMBL904889

>  <standard_relation>  (432) 
=

>  <assay_description>  (432) 
Antagonist activity at human mu opioid receptor expressed in CHO membrane assessed as inhibition of DAMGO-induced [35S]GTP-gamma-S binding

>  <published_relation>  (432) 
=

>  <standard_value>  (432) 
440

>  <qudt_units>  (432) 
http://www.openphacts.org/units/Nanomolar

>  <target_tax_id>  (432) 
9606

>  <bao_label>  (432) 
cell membrane format

>  <published_units>  (432) 
nM

>  <pchembl_value>  (432) 
6.36

>  <published_type>  (432) 
IC50

>  <activity_comment>  (432) 
None

$$$$

     RDKit          

 27 32  0  0  0  0  0  0  0  0999 V2000
    0.0000    0.0000    0.0000 N   0  0  0  0  0  0  0  0  0  0  0  0
    0.0000    0.0000    0.0000 C   0  0  0  0  0  0  0  0  0  0  0  0
    0.0000    0.0000    0.0000 N   0  0  0  0  0  0  0  0  0  0  0  0
    0.0000    0.0000    0.0000 C   0  0  0  0  0  0  0  0  0  0  0  0
    0.0000    0.0000    0.0000 C   0  0  0  0  0  0  0  0  0  0  0  0
    0.0000    0.0000    0.0000 C   0  0  0  0  0  0  0  0  0  0  0  0
    0.0000    0.0000    0.0000 C   0  0  0  0  0  0  0  0  0  0  0  0
    0.0000    0.0000    0.0000 C   0  0  0  0  0  0  0  0  0  0  0  0
    0.0000    0.0000    0.0000 N   0  0  0  0  0  0  0  0  0  0  0  0
    0.0000    0.0000    0.0000 C   0  0  0  0  0  0  0  0  0  0  0  0
    0.0000    0.0000    0.0000 C   0  0  0  0  0  0  0  0  0  0  0  0
    0.0000    0.0000    0.0000 C   0  0  0  0  0  0  0  0  0  0  0  0
    0.0000    0.0000    0.0000 C   0  0  0  0  0  0  0  0  0  0  0  0
    0.0000    0.0000    0.0000 C   0  0  0  0  0  0  0  0  0  0  0  0
    0.0000    0.0000    0.0000 C   0  0  0  0  0  0  0  0  0  0  0  0
    0.0000    0.0000    0.0000 C   0  0  0  0  0  0  0  0  0  0  0  0
    0.0000    0.0000    0.0000 C   0  0  0  0  0  0  0  0  0  0  0  0
    0.0000    0.0000    0.0000 C   0  0  0  0  0  0  0  0  0  0  0  0
    0.0000    0.0000    0.0000 C   0  0  0  0  0  0  0  0  0  0  0  0
    0.0000    0.0000    0.0000 C   0  0  0  0  0  0  0  0  0  0  0  0
    0.0000    0.0000    0.0000 O   0  0  0  0  0  0  0  0  0  0  0  0
    0.0000    0.0000    0.0000 C   0  0  0  0  0  0  0  0  0  0  0  0
    0.0000    0.0000    0.0000 C   0  0  0  0  0  0  0  0  0  0  0  0
    0.0000    0.0000    0.0000 C   0  0  0  0  0  0  0  0  0  0  0  0
    0.0000    0.0000    0.0000 C   0  0  0  0  0  0  0  0  0  0  0  0
    0.0000    0.0000    0.0000 C   0  0  0  0  0  0  0  0  0  0  0  0
    0.0000    0.0000    0.0000 S   0  0  0  0  0  0  0  0  0  0  0  0
  1  2  1  0
  2  3  2  0
  3  4  1  0
  4  5  1  0
  5  6  1  0
  6  7  1  0
  7  8  1  0
  8  9  1  0
  9 10  1  0
 10 11  1  0
 11 12  1  0
 12 13  1  0
 13 14  1  0
  9 15  1  0
 15 16  1  0
 16 17  1  0
 17 18  2  0
 18 19  1  0
 19 20  2  0
 20 21  1  0
 20 22  1  0
 22 23  2  0
 15 24  1  0
 24 25  1  0
 25 26  1  0
 26 27  1  0
 27  2  1  0
 26  4  2  0
 23  6  1  0
 24  6  1  0
 14 11  1  0
 23 17  1  0
M  END
>  <pIC50>  (433) 
7.59

>  <ChEMBL_ID>  (433) 
CHEMBL376355

>  <document_journal>  (433) 
J. Med. Chem.

>  <bao_endpoint>  (433) 
BAO_0000190

>  <potential_duplicate>  (433) 
False

>  <uo_units>  (433) 
UO_0000065

>  <canonical_smiles>  (433) 
Nc1nc2C[C@]34CCN(CC5CCC5)[C@H](Cc6ccc(O)cc36)[C@@H]4Cc2s1

>  <parent_molecule_chembl_id>  (433) 
CHEMBL376355

>  <assay_type>  (433) 
F

>  <src_id>  (433) 
1

>  <ligand_efficiency>  (433) 
None

>  <standard_flag>  (433) 
True

>  <molecule_chembl_id>  (433) 
CHEMBL376355

>  <target_organism>  (433) 
Homo sapiens

>  <standard_units>  (433) 
nM

>  <record_id>  (433) 
638484

>  <document_chembl_id>  (433) 
CHEMBL1143667

>  <bao_format>  (433) 
BAO_0000249

>  <data_validity_description>  (433) 
None

>  <activity_id>  (433) 
1882371

>  <standard_type>  (433) 
IC50

>  <target_chembl_id>  (433) 
CHEMBL233

>  <data_validity_comment>  (433) 
None

>  <published_value>  (433) 
26

>  <document_year>  (433) 
2007

>  <target_pref_name>  (433) 
Mu opioid receptor

>  <assay_chembl_id>  (433) 
CHEMBL904889

>  <standard_relation>  (433) 
=

>  <assay_description>  (433) 
Antagonist activity at human mu opioid receptor expressed in CHO membrane assessed as inhibition of DAMGO-induced [35S]GTP-gamma-S binding

>  <published_relation>  (433) 
=

>  <standard_value>  (433) 
26

>  <qudt_units>  (433) 
http://www.openphacts.org/units/Nanomolar

>  <target_tax_id>  (433) 
9606

>  <bao_label>  (433) 
cell membrane format

>  <published_units>  (433) 
nM

>  <pchembl_value>  (433) 
7.59

>  <published_type>  (433) 
IC50

>  <activity_comment>  (433) 
None

$$$$

     RDKit          

 26 31  0  0  0  0  0  0  0  0999 V2000
    0.0000    0.0000    0.0000 N   0  0  0  0  0  0  0  0  0  0  0  0
    0.0000    0.0000    0.0000 C   0  0  0  0  0  0  0  0  0  0  0  0
    0.0000    0.0000    0.0000 N   0  0  0  0  0  0  0  0  0  0  0  0
    0.0000    0.0000    0.0000 C   0  0  0  0  0  0  0  0  0  0  0  0
    0.0000    0.0000    0.0000 C   0  0  0  0  0  0  0  0  0  0  0  0
    0.0000    0.0000    0.0000 C   0  0  0  0  0  0  0  0  0  0  0  0
    0.0000    0.0000    0.0000 C   0  0  0  0  0  0  0  0  0  0  0  0
    0.0000    0.0000    0.0000 C   0  0  0  0  0  0  0  0  0  0  0  0
    0.0000    0.0000    0.0000 N   0  0  0  0  0  0  0  0  0  0  0  0
    0.0000    0.0000    0.0000 C   0  0  0  0  0  0  0  0  0  0  0  0
    0.0000    0.0000    0.0000 C   0  0  0  0  0  0  0  0  0  0  0  0
    0.0000    0.0000    0.0000 C   0  0  0  0  0  0  0  0  0  0  0  0
    0.0000    0.0000    0.0000 C   0  0  0  0  0  0  0  0  0  0  0  0
    0.0000    0.0000    0.0000 C   0  0  0  0  0  0  0  0  0  0  0  0
    0.0000    0.0000    0.0000 C   0  0  0  0  0  0  0  0  0  0  0  0
    0.0000    0.0000    0.0000 C   0  0  0  0  0  0  0  0  0  0  0  0
    0.0000    0.0000    0.0000 C   0  0  0  0  0  0  0  0  0  0  0  0
    0.0000    0.0000    0.0000 C   0  0  0  0  0  0  0  0  0  0  0  0
    0.0000    0.0000    0.0000 C   0  0  0  0  0  0  0  0  0  0  0  0
    0.0000    0.0000    0.0000 O   0  0  0  0  0  0  0  0  0  0  0  0
    0.0000    0.0000    0.0000 C   0  0  0  0  0  0  0  0  0  0  0  0
    0.0000    0.0000    0.0000 C   0  0  0  0  0  0  0  0  0  0  0  0
    0.0000    0.0000    0.0000 C   0  0  0  0  0  0  0  0  0  0  0  0
    0.0000    0.0000    0.0000 C   0  0  0  0  0  0  0  0  0  0  0  0
    0.0000    0.0000    0.0000 C   0  0  0  0  0  0  0  0  0  0  0  0
    0.0000    0.0000    0.0000 S   0  0  0  0  0  0  0  0  0  0  0  0
  1  2  1  0
  2  3  2  0
  3  4  1  0
  4  5  1  0
  5  6  1  0
  6  7  1  0
  7  8  1  0
  8  9  1  0
  9 10  1  0
 10 11  1  0
 11 12  1  0
 12 13  1  0
  9 14  1  0
 14 15  1  0
 15 16  1  0
 16 17  2  0
 17 18  1  0
 18 19  2  0
 19 20  1  0
 19 21  1  0
 21 22  2  0
 14 23  1  0
 23 24  1  0
 24 25  1  0
 25 26  1  0
 26  2  1  0
 25  4  2  0
 22  6  1  0
 23  6  1  0
 13 11  1  0
 22 16  1  0
M  END
>  <pIC50>  (434) 
8.52

>  <ChEMBL_ID>  (434) 
CHEMBL226217

>  <document_journal>  (434) 
J. Med. Chem.

>  <bao_endpoint>  (434) 
BAO_0000190

>  <potential_duplicate>  (434) 
False

>  <uo_units>  (434) 
UO_0000065

>  <canonical_smiles>  (434) 
Nc1nc2C[C@]34CCN(CC5CC5)[C@H](Cc6ccc(O)cc36)[C@@H]4Cc2s1

>  <parent_molecule_chembl_id>  (434) 
CHEMBL226217

>  <assay_type>  (434) 
F

>  <src_id>  (434) 
1

>  <ligand_efficiency>  (434) 
None

>  <standard_flag>  (434) 
True

>  <molecule_chembl_id>  (434) 
CHEMBL226217

>  <target_organism>  (434) 
Homo sapiens

>  <standard_units>  (434) 
nM

>  <record_id>  (434) 
638483

>  <document_chembl_id>  (434) 
CHEMBL1143667

>  <bao_format>  (434) 
BAO_0000249

>  <data_validity_description>  (434) 
None

>  <activity_id>  (434) 
1882373

>  <standard_type>  (434) 
IC50

>  <target_chembl_id>  (434) 
CHEMBL233

>  <data_validity_comment>  (434) 
None

>  <published_value>  (434) 
3

>  <document_year>  (434) 
2007

>  <target_pref_name>  (434) 
Mu opioid receptor

>  <assay_chembl_id>  (434) 
CHEMBL904889

>  <standard_relation>  (434) 
=

>  <assay_description>  (434) 
Antagonist activity at human mu opioid receptor expressed in CHO membrane assessed as inhibition of DAMGO-induced [35S]GTP-gamma-S binding

>  <published_relation>  (434) 
=

>  <standard_value>  (434) 
3

>  <qudt_units>  (434) 
http://www.openphacts.org/units/Nanomolar

>  <target_tax_id>  (434) 
9606

>  <bao_label>  (434) 
cell membrane format

>  <published_units>  (434) 
nM

>  <pchembl_value>  (434) 
8.52

>  <published_type>  (434) 
IC50

>  <activity_comment>  (434) 
None

$$$$

     RDKit          

 29 35  0  0  0  0  0  0  0  0999 V2000
    0.0000    0.0000    0.0000 O   0  0  0  0  0  0  0  0  0  0  0  0
    0.0000    0.0000    0.0000 C   0  0  0  0  0  0  0  0  0  0  0  0
    0.0000    0.0000    0.0000 C   0  0  0  0  0  0  0  0  0  0  0  0
    0.0000    0.0000    0.0000 C   0  0  0  0  0  0  0  0  0  0  0  0
    0.0000    0.0000    0.0000 C   0  0  0  0  0  0  0  0  0  0  0  0
    0.0000    0.0000    0.0000 C   0  0  0  0  0  0  0  0  0  0  0  0
    0.0000    0.0000    0.0000 C   0  0  0  0  0  0  0  0  0  0  0  0
    0.0000    0.0000    0.0000 C   0  0  0  0  0  0  0  0  0  0  0  0
    0.0000    0.0000    0.0000 C   0  0  0  0  0  0  0  0  0  0  0  0
    0.0000    0.0000    0.0000 C   0  0  0  0  0  0  0  0  0  0  0  0
    0.0000    0.0000    0.0000 C   0  0  0  0  0  0  0  0  0  0  0  0
    0.0000    0.0000    0.0000 C   0  0  0  0  0  0  0  0  0  0  0  0
    0.0000    0.0000    0.0000 C   0  0  0  0  0  0  0  0  0  0  0  0
    0.0000    0.0000    0.0000 C   0  0  0  0  0  0  0  0  0  0  0  0
    0.0000    0.0000    0.0000 C   0  0  0  0  0  0  0  0  0  0  0  0
    0.0000    0.0000    0.0000 N   0  0  0  0  0  0  0  0  0  0  0  0
    0.0000    0.0000    0.0000 C   0  0  0  0  0  0  0  0  0  0  0  0
    0.0000    0.0000    0.0000 C   0  0  0  0  0  0  0  0  0  0  0  0
    0.0000    0.0000    0.0000 C   0  0  0  0  0  0  0  0  0  0  0  0
    0.0000    0.0000    0.0000 C   0  0  0  0  0  0  0  0  0  0  0  0
    0.0000    0.0000    0.0000 C   0  0  0  0  0  0  0  0  0  0  0  0
    0.0000    0.0000    0.0000 C   0  0  0  0  0  0  0  0  0  0  0  0
    0.0000    0.0000    0.0000 N   0  0  0  0  0  0  0  0  0  0  0  0
    0.0000    0.0000    0.0000 C   0  0  0  0  0  0  0  0  0  0  0  0
    0.0000    0.0000    0.0000 C   0  0  0  0  0  0  0  0  0  0  0  0
    0.0000    0.0000    0.0000 C   0  0  0  0  0  0  0  0  0  0  0  0
    0.0000    0.0000    0.0000 C   0  0  0  0  0  0  0  0  0  0  0  0
    0.0000    0.0000    0.0000 C   0  0  0  0  0  0  0  0  0  0  0  0
    0.0000    0.0000    0.0000 C   0  0  0  0  0  0  0  0  0  0  0  0
  1  2  1  0
  2  3  2  0
  3  4  1  0
  4  5  2  0
  5  6  1  0
  6  7  1  0
  7  8  1  0
  8  9  1  0
  9 10  1  0
 10 11  2  0
 11 12  1  0
 12 13  1  0
 13 14  1  0
 14 15  1  0
 15 16  1  0
 16 17  1  0
 17 18  1  0
 18 19  1  0
 19 20  1  0
 13 21  1  0
 21 22  2  0
 11 23  1  0
 23 24  1  0
 24 25  2  0
 25 26  1  0
 26 27  2  0
 27 28  1  0
 28 29  2  0
 22  2  1  0
 21  5  1  0
 16  7  1  0
 13  8  1  0
 29 10  1  0
 20 18  1  0
 29 24  1  0
M  END
>  <pIC50>  (435) 
7.92

>  <ChEMBL_ID>  (435) 
CHEMBL226166

>  <document_journal>  (435) 
J. Med. Chem.

>  <bao_endpoint>  (435) 
BAO_0000190

>  <potential_duplicate>  (435) 
False

>  <uo_units>  (435) 
UO_0000065

>  <canonical_smiles>  (435) 
Oc1ccc2C[C@@H]3[C@@H]4Cc5c(C[C@]4(CCN3CC6CC6)c2c1)[nH]c7ccccc57

>  <parent_molecule_chembl_id>  (435) 
CHEMBL226166

>  <assay_type>  (435) 
F

>  <src_id>  (435) 
1

>  <ligand_efficiency>  (435) 
None

>  <standard_flag>  (435) 
True

>  <molecule_chembl_id>  (435) 
CHEMBL226166

>  <target_organism>  (435) 
Homo sapiens

>  <standard_units>  (435) 
nM

>  <record_id>  (435) 
638480

>  <document_chembl_id>  (435) 
CHEMBL1143667

>  <bao_format>  (435) 
BAO_0000249

>  <data_validity_description>  (435) 
None

>  <activity_id>  (435) 
1882377

>  <standard_type>  (435) 
IC50

>  <target_chembl_id>  (435) 
CHEMBL233

>  <data_validity_comment>  (435) 
None

>  <published_value>  (435) 
12

>  <document_year>  (435) 
2007

>  <target_pref_name>  (435) 
Mu opioid receptor

>  <assay_chembl_id>  (435) 
CHEMBL904889

>  <standard_relation>  (435) 
=

>  <assay_description>  (435) 
Antagonist activity at human mu opioid receptor expressed in CHO membrane assessed as inhibition of DAMGO-induced [35S]GTP-gamma-S binding

>  <published_relation>  (435) 
=

>  <standard_value>  (435) 
12

>  <qudt_units>  (435) 
http://www.openphacts.org/units/Nanomolar

>  <target_tax_id>  (435) 
9606

>  <bao_label>  (435) 
cell membrane format

>  <published_units>  (435) 
nM

>  <pchembl_value>  (435) 
7.92

>  <published_type>  (435) 
IC50

>  <activity_comment>  (435) 
None

$$$$

     RDKit          

 33 38  0  0  0  0  0  0  0  0999 V2000
    0.0000    0.0000    0.0000 O   0  0  0  0  0  0  0  0  0  0  0  0
    0.0000    0.0000    0.0000 C   0  0  0  0  0  0  0  0  0  0  0  0
    0.0000    0.0000    0.0000 N   0  0  0  0  0  0  0  0  0  0  0  0
    0.0000    0.0000    0.0000 C   0  0  0  0  0  0  0  0  0  0  0  0
    0.0000    0.0000    0.0000 C   0  0  0  0  0  0  0  0  0  0  0  0
    0.0000    0.0000    0.0000 C   0  0  0  0  0  0  0  0  0  0  0  0
    0.0000    0.0000    0.0000 C   0  0  0  0  0  0  0  0  0  0  0  0
    0.0000    0.0000    0.0000 C   0  0  0  0  0  0  0  0  0  0  0  0
    0.0000    0.0000    0.0000 C   0  0  0  0  0  0  0  0  0  0  0  0
    0.0000    0.0000    0.0000 C   0  0  0  0  0  0  0  0  0  0  0  0
    0.0000    0.0000    0.0000 O   0  0  0  0  0  0  0  0  0  0  0  0
    0.0000    0.0000    0.0000 C   0  0  0  0  0  0  0  0  0  0  0  0
    0.0000    0.0000    0.0000 C   0  0  0  0  0  0  0  0  0  0  0  0
    0.0000    0.0000    0.0000 C   0  0  0  0  0  0  0  0  0  0  0  0
    0.0000    0.0000    0.0000 C   0  0  0  0  0  0  0  0  0  0  0  0
    0.0000    0.0000    0.0000 C   0  0  0  0  0  0  0  0  0  0  0  0
    0.0000    0.0000    0.0000 C   0  0  0  0  0  0  0  0  0  0  0  0
    0.0000    0.0000    0.0000 C   0  0  0  0  0  0  0  0  0  0  0  0
    0.0000    0.0000    0.0000 C   0  0  0  0  0  0  0  0  0  0  0  0
    0.0000    0.0000    0.0000 C   0  0  0  0  0  0  0  0  0  0  0  0
    0.0000    0.0000    0.0000 C   0  0  0  0  0  0  0  0  0  0  0  0
    0.0000    0.0000    0.0000 C   0  0  0  0  0  0  0  0  0  0  0  0
    0.0000    0.0000    0.0000 C   0  0  0  0  0  0  0  0  0  0  0  0
    0.0000    0.0000    0.0000 C   0  0  0  0  0  0  0  0  0  0  0  0
    0.0000    0.0000    0.0000 C   0  0  0  0  0  0  0  0  0  0  0  0
    0.0000    0.0000    0.0000 N   0  0  0  0  0  0  0  0  0  0  0  0
    0.0000    0.0000    0.0000 C   0  0  0  0  0  0  0  0  0  0  0  0
    0.0000    0.0000    0.0000 C   0  0  0  0  0  0  0  0  0  0  0  0
    0.0000    0.0000    0.0000 C   0  0  0  0  0  0  0  0  0  0  0  0
    0.0000    0.0000    0.0000 C   0  0  0  0  0  0  0  0  0  0  0  0
    0.0000    0.0000    0.0000 C   0  0  0  0  0  0  0  0  0  0  0  0
    0.0000    0.0000    0.0000 C   0  0  0  0  0  0  0  0  0  0  0  0
    0.0000    0.0000    0.0000 C   0  0  0  0  0  0  0  0  0  0  0  0
  1  2  2  0
  2  3  1  0
  3  4  1  0
  4  5  1  0
  5  6  2  0
  6  7  1  0
  7  8  2  0
  8  9  1  0
  9 10  2  0
  2 11  1  0
 11 12  1  0
 12 13  2  0
 13 14  1  0
 14 15  2  0
 15 16  1  0
 16 17  1  0
 17 18  1  0
 18 19  1  0
 19 20  1  0
 20 21  1  0
 21 22  1  0
 22 23  1  0
 23 24  1  0
 24 25  1  0
 25 26  1  0
 26 27  1  0
 27 28  1  0
 28 29  1  0
 29 30  1  0
 30 31  1  0
 23 32  1  0
 32 33  2  0
 10  5  1  0
 33 12  1  0
 32 15  1  0
 26 17  1  0
 23 18  1  0
 31 28  1  0
M  END
>  <pIC50>  (436) 
6.59

>  <ChEMBL_ID>  (436) 
CHEMBL394624

>  <document_journal>  (436) 
Bioorg. Med. Chem. Lett.

>  <bao_endpoint>  (436) 
BAO_0000190

>  <potential_duplicate>  (436) 
False

>  <uo_units>  (436) 
UO_0000065

>  <canonical_smiles>  (436) 
O=C(NCc1ccccc1)Oc2ccc3CC4C5CCCCC5(CCN4CC6CCC6)c3c2

>  <parent_molecule_chembl_id>  (436) 
CHEMBL394624

>  <assay_type>  (436) 
F

>  <src_id>  (436) 
1

>  <ligand_efficiency>  (436) 
None

>  <standard_flag>  (436) 
True

>  <molecule_chembl_id>  (436) 
CHEMBL394624

>  <target_organism>  (436) 
Homo sapiens

>  <standard_units>  (436) 
nM

>  <record_id>  (436) 
641631

>  <document_chembl_id>  (436) 
CHEMBL1144610

>  <bao_format>  (436) 
BAO_0000219

>  <data_validity_description>  (436) 
None

>  <activity_id>  (436) 
1896328

>  <standard_type>  (436) 
IC50

>  <target_chembl_id>  (436) 
CHEMBL233

>  <data_validity_comment>  (436) 
None

>  <published_value>  (436) 
260

>  <document_year>  (436) 
2007

>  <target_pref_name>  (436) 
Mu opioid receptor

>  <assay_chembl_id>  (436) 
CHEMBL887397

>  <standard_relation>  (436) 
=

>  <assay_description>  (436) 
Antagonist activity at human mu opioid receptor expressed in CHO cells assessed as DAMGO-stimulated [35S]GTP-gamma-S binding

>  <published_relation>  (436) 
=

>  <standard_value>  (436) 
260

>  <qudt_units>  (436) 
http://www.openphacts.org/units/Nanomolar

>  <target_tax_id>  (436) 
9606

>  <bao_label>  (436) 
cell-based format

>  <published_units>  (436) 
nM

>  <pchembl_value>  (436) 
6.59

>  <published_type>  (436) 
IC50

>  <activity_comment>  (436) 
None

$$$$

     RDKit          

 32 37  0  0  0  0  0  0  0  0999 V2000
    0.0000    0.0000    0.0000 O   0  0  0  0  0  0  0  0  0  0  0  0
    0.0000    0.0000    0.0000 C   0  0  0  0  0  0  0  0  0  0  0  0
    0.0000    0.0000    0.0000 N   0  0  0  0  0  0  0  0  0  0  0  0
    0.0000    0.0000    0.0000 C   0  0  0  0  0  0  0  0  0  0  0  0
    0.0000    0.0000    0.0000 C   0  0  0  0  0  0  0  0  0  0  0  0
    0.0000    0.0000    0.0000 C   0  0  0  0  0  0  0  0  0  0  0  0
    0.0000    0.0000    0.0000 C   0  0  0  0  0  0  0  0  0  0  0  0
    0.0000    0.0000    0.0000 C   0  0  0  0  0  0  0  0  0  0  0  0
    0.0000    0.0000    0.0000 C   0  0  0  0  0  0  0  0  0  0  0  0
    0.0000    0.0000    0.0000 O   0  0  0  0  0  0  0  0  0  0  0  0
    0.0000    0.0000    0.0000 C   0  0  0  0  0  0  0  0  0  0  0  0
    0.0000    0.0000    0.0000 C   0  0  0  0  0  0  0  0  0  0  0  0
    0.0000    0.0000    0.0000 C   0  0  0  0  0  0  0  0  0  0  0  0
    0.0000    0.0000    0.0000 C   0  0  0  0  0  0  0  0  0  0  0  0
    0.0000    0.0000    0.0000 C   0  0  0  0  0  0  0  0  0  0  0  0
    0.0000    0.0000    0.0000 C   0  0  0  0  0  0  0  0  0  0  0  0
    0.0000    0.0000    0.0000 C   0  0  0  0  0  0  0  0  0  0  0  0
    0.0000    0.0000    0.0000 C   0  0  0  0  0  0  0  0  0  0  0  0
    0.0000    0.0000    0.0000 C   0  0  0  0  0  0  0  0  0  0  0  0
    0.0000    0.0000    0.0000 C   0  0  0  0  0  0  0  0  0  0  0  0
    0.0000    0.0000    0.0000 C   0  0  0  0  0  0  0  0  0  0  0  0
    0.0000    0.0000    0.0000 C   0  0  0  0  0  0  0  0  0  0  0  0
    0.0000    0.0000    0.0000 C   0  0  0  0  0  0  0  0  0  0  0  0
    0.0000    0.0000    0.0000 C   0  0  0  0  0  0  0  0  0  0  0  0
    0.0000    0.0000    0.0000 N   0  0  0  0  0  0  0  0  0  0  0  0
    0.0000    0.0000    0.0000 C   0  0  0  0  0  0  0  0  0  0  0  0
    0.0000    0.0000    0.0000 C   0  0  0  0  0  0  0  0  0  0  0  0
    0.0000    0.0000    0.0000 C   0  0  0  0  0  0  0  0  0  0  0  0
    0.0000    0.0000    0.0000 C   0  0  0  0  0  0  0  0  0  0  0  0
    0.0000    0.0000    0.0000 C   0  0  0  0  0  0  0  0  0  0  0  0
    0.0000    0.0000    0.0000 C   0  0  0  0  0  0  0  0  0  0  0  0
    0.0000    0.0000    0.0000 C   0  0  0  0  0  0  0  0  0  0  0  0
  1  2  2  0
  2  3  1  0
  3  4  1  0
  4  5  2  0
  5  6  1  0
  6  7  2  0
  7  8  1  0
  8  9  2  0
  2 10  1  0
 10 11  1  0
 11 12  2  0
 12 13  1  0
 13 14  2  0
 14 15  1  0
 15 16  1  0
 16 17  1  0
 17 18  1  0
 18 19  1  0
 19 20  1  0
 20 21  1  0
 21 22  1  0
 22 23  1  0
 23 24  1  0
 24 25  1  0
 25 26  1  0
 26 27  1  0
 27 28  1  0
 28 29  1  0
 29 30  1  0
 22 31  1  0
 31 32  2  0
  9  4  1  0
 32 11  1  0
 31 14  1  0
 25 16  1  0
 22 17  1  0
 30 27  1  0
M  END
>  <pIC50>  (437) 
7.66

>  <ChEMBL_ID>  (437) 
CHEMBL242048

>  <document_journal>  (437) 
Bioorg. Med. Chem. Lett.

>  <bao_endpoint>  (437) 
BAO_0000190

>  <potential_duplicate>  (437) 
False

>  <uo_units>  (437) 
UO_0000065

>  <canonical_smiles>  (437) 
O=C(Nc1ccccc1)Oc2ccc3CC4C5CCCCC5(CCN4CC6CCC6)c3c2

>  <parent_molecule_chembl_id>  (437) 
CHEMBL242048

>  <assay_type>  (437) 
F

>  <src_id>  (437) 
1

>  <ligand_efficiency>  (437) 
None

>  <standard_flag>  (437) 
True

>  <molecule_chembl_id>  (437) 
CHEMBL242048

>  <target_organism>  (437) 
Homo sapiens

>  <standard_units>  (437) 
nM

>  <record_id>  (437) 
641630

>  <document_chembl_id>  (437) 
CHEMBL1144610

>  <bao_format>  (437) 
BAO_0000219

>  <data_validity_description>  (437) 
None

>  <activity_id>  (437) 
1896330

>  <standard_type>  (437) 
IC50

>  <target_chembl_id>  (437) 
CHEMBL233

>  <data_validity_comment>  (437) 
None

>  <published_value>  (437) 
22

>  <document_year>  (437) 
2007

>  <target_pref_name>  (437) 
Mu opioid receptor

>  <assay_chembl_id>  (437) 
CHEMBL887397

>  <standard_relation>  (437) 
=

>  <assay_description>  (437) 
Antagonist activity at human mu opioid receptor expressed in CHO cells assessed as DAMGO-stimulated [35S]GTP-gamma-S binding

>  <published_relation>  (437) 
=

>  <standard_value>  (437) 
22

>  <qudt_units>  (437) 
http://www.openphacts.org/units/Nanomolar

>  <target_tax_id>  (437) 
9606

>  <bao_label>  (437) 
cell-based format

>  <published_units>  (437) 
nM

>  <pchembl_value>  (437) 
7.66

>  <published_type>  (437) 
IC50

>  <activity_comment>  (437) 
None

$$$$

     RDKit          

 32 37  0  0  0  0  0  0  0  0999 V2000
    0.0000    0.0000    0.0000 O   0  0  0  0  0  0  0  0  0  0  0  0
    0.0000    0.0000    0.0000 C   0  0  0  0  0  0  0  0  0  0  0  0
    0.0000    0.0000    0.0000 N   0  0  0  0  0  0  0  0  0  0  0  0
    0.0000    0.0000    0.0000 C   0  0  0  0  0  0  0  0  0  0  0  0
    0.0000    0.0000    0.0000 C   0  0  0  0  0  0  0  0  0  0  0  0
    0.0000    0.0000    0.0000 C   0  0  0  0  0  0  0  0  0  0  0  0
    0.0000    0.0000    0.0000 C   0  0  0  0  0  0  0  0  0  0  0  0
    0.0000    0.0000    0.0000 C   0  0  0  0  0  0  0  0  0  0  0  0
    0.0000    0.0000    0.0000 C   0  0  0  0  0  0  0  0  0  0  0  0
    0.0000    0.0000    0.0000 C   0  0  0  0  0  0  0  0  0  0  0  0
    0.0000    0.0000    0.0000 O   0  0  0  0  0  0  0  0  0  0  0  0
    0.0000    0.0000    0.0000 C   0  0  0  0  0  0  0  0  0  0  0  0
    0.0000    0.0000    0.0000 C   0  0  0  0  0  0  0  0  0  0  0  0
    0.0000    0.0000    0.0000 C   0  0  0  0  0  0  0  0  0  0  0  0
    0.0000    0.0000    0.0000 C   0  0  0  0  0  0  0  0  0  0  0  0
    0.0000    0.0000    0.0000 C   0  0  0  0  0  0  0  0  0  0  0  0
    0.0000    0.0000    0.0000 C   0  0  0  0  0  0  0  0  0  0  0  0
    0.0000    0.0000    0.0000 C   0  0  0  0  0  0  0  0  0  0  0  0
    0.0000    0.0000    0.0000 C   0  0  0  0  0  0  0  0  0  0  0  0
    0.0000    0.0000    0.0000 C   0  0  0  0  0  0  0  0  0  0  0  0
    0.0000    0.0000    0.0000 C   0  0  0  0  0  0  0  0  0  0  0  0
    0.0000    0.0000    0.0000 C   0  0  0  0  0  0  0  0  0  0  0  0
    0.0000    0.0000    0.0000 C   0  0  0  0  0  0  0  0  0  0  0  0
    0.0000    0.0000    0.0000 C   0  0  0  0  0  0  0  0  0  0  0  0
    0.0000    0.0000    0.0000 C   0  0  0  0  0  0  0  0  0  0  0  0
    0.0000    0.0000    0.0000 N   0  0  0  0  0  0  0  0  0  0  0  0
    0.0000    0.0000    0.0000 C   0  0  0  0  0  0  0  0  0  0  0  0
    0.0000    0.0000    0.0000 C   0  0  0  0  0  0  0  0  0  0  0  0
    0.0000    0.0000    0.0000 C   0  0  0  0  0  0  0  0  0  0  0  0
    0.0000    0.0000    0.0000 C   0  0  0  0  0  0  0  0  0  0  0  0
    0.0000    0.0000    0.0000 C   0  0  0  0  0  0  0  0  0  0  0  0
    0.0000    0.0000    0.0000 C   0  0  0  0  0  0  0  0  0  0  0  0
  1  2  2  0
  2  3  1  0
  3  4  1  0
  4  5  1  0
  5  6  2  0
  6  7  1  0
  7  8  2  0
  8  9  1  0
  9 10  2  0
  2 11  1  0
 11 12  1  0
 12 13  2  0
 13 14  1  0
 14 15  2  0
 15 16  1  0
 16 17  1  0
 17 18  1  0
 18 19  1  0
 19 20  1  0
 20 21  1  0
 21 22  1  0
 22 23  1  0
 23 24  1  0
 24 25  1  0
 25 26  1  0
 26 27  1  0
 27 28  1  0
 28 29  1  0
 29 30  1  0
 23 31  1  0
 31 32  2  0
 10  5  1  0
 32 12  1  0
 31 15  1  0
 26 17  1  0
 23 18  1  0
 30 28  1  0
M  END
>  <pIC50>  (438) 
7.8

>  <ChEMBL_ID>  (438) 
CHEMBL263096

>  <document_journal>  (438) 
Bioorg. Med. Chem. Lett.

>  <bao_endpoint>  (438) 
BAO_0000190

>  <potential_duplicate>  (438) 
False

>  <uo_units>  (438) 
UO_0000065

>  <canonical_smiles>  (438) 
O=C(NCc1ccccc1)Oc2ccc3CC4C5CCCCC5(CCN4CC6CC6)c3c2

>  <parent_molecule_chembl_id>  (438) 
CHEMBL263096

>  <assay_type>  (438) 
F

>  <src_id>  (438) 
1

>  <ligand_efficiency>  (438) 
None

>  <standard_flag>  (438) 
True

>  <molecule_chembl_id>  (438) 
CHEMBL263096

>  <target_organism>  (438) 
Homo sapiens

>  <standard_units>  (438) 
nM

>  <record_id>  (438) 
641626

>  <document_chembl_id>  (438) 
CHEMBL1144610

>  <bao_format>  (438) 
BAO_0000219

>  <data_validity_description>  (438) 
None

>  <activity_id>  (438) 
1896338

>  <standard_type>  (438) 
IC50

>  <target_chembl_id>  (438) 
CHEMBL233

>  <data_validity_comment>  (438) 
None

>  <published_value>  (438) 
16

>  <document_year>  (438) 
2007

>  <target_pref_name>  (438) 
Mu opioid receptor

>  <assay_chembl_id>  (438) 
CHEMBL887397

>  <standard_relation>  (438) 
=

>  <assay_description>  (438) 
Antagonist activity at human mu opioid receptor expressed in CHO cells assessed as DAMGO-stimulated [35S]GTP-gamma-S binding

>  <published_relation>  (438) 
=

>  <standard_value>  (438) 
16

>  <qudt_units>  (438) 
http://www.openphacts.org/units/Nanomolar

>  <target_tax_id>  (438) 
9606

>  <bao_label>  (438) 
cell-based format

>  <published_units>  (438) 
nM

>  <pchembl_value>  (438) 
7.8

>  <published_type>  (438) 
IC50

>  <activity_comment>  (438) 
None

$$$$

     RDKit          

 31 36  0  0  0  0  0  0  0  0999 V2000
    0.0000    0.0000    0.0000 O   0  0  0  0  0  0  0  0  0  0  0  0
    0.0000    0.0000    0.0000 C   0  0  0  0  0  0  0  0  0  0  0  0
    0.0000    0.0000    0.0000 N   0  0  0  0  0  0  0  0  0  0  0  0
    0.0000    0.0000    0.0000 C   0  0  0  0  0  0  0  0  0  0  0  0
    0.0000    0.0000    0.0000 C   0  0  0  0  0  0  0  0  0  0  0  0
    0.0000    0.0000    0.0000 C   0  0  0  0  0  0  0  0  0  0  0  0
    0.0000    0.0000    0.0000 C   0  0  0  0  0  0  0  0  0  0  0  0
    0.0000    0.0000    0.0000 C   0  0  0  0  0  0  0  0  0  0  0  0
    0.0000    0.0000    0.0000 C   0  0  0  0  0  0  0  0  0  0  0  0
    0.0000    0.0000    0.0000 O   0  0  0  0  0  0  0  0  0  0  0  0
    0.0000    0.0000    0.0000 C   0  0  0  0  0  0  0  0  0  0  0  0
    0.0000    0.0000    0.0000 C   0  0  0  0  0  0  0  0  0  0  0  0
    0.0000    0.0000    0.0000 C   0  0  0  0  0  0  0  0  0  0  0  0
    0.0000    0.0000    0.0000 C   0  0  0  0  0  0  0  0  0  0  0  0
    0.0000    0.0000    0.0000 C   0  0  0  0  0  0  0  0  0  0  0  0
    0.0000    0.0000    0.0000 C   0  0  0  0  0  0  0  0  0  0  0  0
    0.0000    0.0000    0.0000 C   0  0  0  0  0  0  0  0  0  0  0  0
    0.0000    0.0000    0.0000 C   0  0  0  0  0  0  0  0  0  0  0  0
    0.0000    0.0000    0.0000 C   0  0  0  0  0  0  0  0  0  0  0  0
    0.0000    0.0000    0.0000 C   0  0  0  0  0  0  0  0  0  0  0  0
    0.0000    0.0000    0.0000 C   0  0  0  0  0  0  0  0  0  0  0  0
    0.0000    0.0000    0.0000 C   0  0  0  0  0  0  0  0  0  0  0  0
    0.0000    0.0000    0.0000 C   0  0  0  0  0  0  0  0  0  0  0  0
    0.0000    0.0000    0.0000 C   0  0  0  0  0  0  0  0  0  0  0  0
    0.0000    0.0000    0.0000 N   0  0  0  0  0  0  0  0  0  0  0  0
    0.0000    0.0000    0.0000 C   0  0  0  0  0  0  0  0  0  0  0  0
    0.0000    0.0000    0.0000 C   0  0  0  0  0  0  0  0  0  0  0  0
    0.0000    0.0000    0.0000 C   0  0  0  0  0  0  0  0  0  0  0  0
    0.0000    0.0000    0.0000 C   0  0  0  0  0  0  0  0  0  0  0  0
    0.0000    0.0000    0.0000 C   0  0  0  0  0  0  0  0  0  0  0  0
    0.0000    0.0000    0.0000 C   0  0  0  0  0  0  0  0  0  0  0  0
  1  2  2  0
  2  3  1  0
  3  4  1  0
  4  5  2  0
  5  6  1  0
  6  7  2  0
  7  8  1  0
  8  9  2  0
  2 10  1  0
 10 11  1  0
 11 12  2  0
 12 13  1  0
 13 14  2  0
 14 15  1  0
 15 16  1  0
 16 17  1  0
 17 18  1  0
 18 19  1  0
 19 20  1  0
 20 21  1  0
 21 22  1  0
 22 23  1  0
 23 24  1  0
 24 25  1  0
 25 26  1  0
 26 27  1  0
 27 28  1  0
 28 29  1  0
 22 30  1  0
 30 31  2  0
  9  4  1  0
 31 11  1  0
 30 14  1  0
 25 16  1  0
 22 17  1  0
 29 27  1  0
M  END
>  <pIC50>  (439) 
8.19

>  <ChEMBL_ID>  (439) 
CHEMBL397035

>  <document_journal>  (439) 
Bioorg. Med. Chem. Lett.

>  <bao_endpoint>  (439) 
BAO_0000190

>  <potential_duplicate>  (439) 
False

>  <uo_units>  (439) 
UO_0000065

>  <canonical_smiles>  (439) 
O=C(Nc1ccccc1)Oc2ccc3CC4C5CCCCC5(CCN4CC6CC6)c3c2

>  <parent_molecule_chembl_id>  (439) 
CHEMBL397035

>  <assay_type>  (439) 
F

>  <src_id>  (439) 
1

>  <ligand_efficiency>  (439) 
None

>  <standard_flag>  (439) 
True

>  <molecule_chembl_id>  (439) 
CHEMBL397035

>  <target_organism>  (439) 
Homo sapiens

>  <standard_units>  (439) 
nM

>  <record_id>  (439) 
641625

>  <document_chembl_id>  (439) 
CHEMBL1144610

>  <bao_format>  (439) 
BAO_0000219

>  <data_validity_description>  (439) 
None

>  <activity_id>  (439) 
1896340

>  <standard_type>  (439) 
IC50

>  <target_chembl_id>  (439) 
CHEMBL233

>  <data_validity_comment>  (439) 
None

>  <published_value>  (439) 
6.4

>  <document_year>  (439) 
2007

>  <target_pref_name>  (439) 
Mu opioid receptor

>  <assay_chembl_id>  (439) 
CHEMBL887397

>  <standard_relation>  (439) 
=

>  <assay_description>  (439) 
Antagonist activity at human mu opioid receptor expressed in CHO cells assessed as DAMGO-stimulated [35S]GTP-gamma-S binding

>  <published_relation>  (439) 
=

>  <standard_value>  (439) 
6.4

>  <qudt_units>  (439) 
http://www.openphacts.org/units/Nanomolar

>  <target_tax_id>  (439) 
9606

>  <bao_label>  (439) 
cell-based format

>  <published_units>  (439) 
nM

>  <pchembl_value>  (439) 
8.19

>  <published_type>  (439) 
IC50

>  <activity_comment>  (439) 
None

$$$$

     RDKit          

 27 31  0  0  0  0  0  0  0  0999 V2000
    0.0000    0.0000    0.0000 C   0  0  0  0  0  0  0  0  0  0  0  0
    0.0000    0.0000    0.0000 C   0  0  0  0  0  0  0  0  0  0  0  0
    0.0000    0.0000    0.0000 N   0  0  0  0  0  0  0  0  0  0  0  0
    0.0000    0.0000    0.0000 C   0  0  0  0  0  0  0  0  0  0  0  0
    0.0000    0.0000    0.0000 O   0  0  0  0  0  0  0  0  0  0  0  0
    0.0000    0.0000    0.0000 O   0  0  0  0  0  0  0  0  0  0  0  0
    0.0000    0.0000    0.0000 C   0  0  0  0  0  0  0  0  0  0  0  0
    0.0000    0.0000    0.0000 C   0  0  0  0  0  0  0  0  0  0  0  0
    0.0000    0.0000    0.0000 C   0  0  0  0  0  0  0  0  0  0  0  0
    0.0000    0.0000    0.0000 C   0  0  0  0  0  0  0  0  0  0  0  0
    0.0000    0.0000    0.0000 C   0  0  0  0  0  0  0  0  0  0  0  0
    0.0000    0.0000    0.0000 C   0  0  0  0  0  0  0  0  0  0  0  0
    0.0000    0.0000    0.0000 C   0  0  0  0  0  0  0  0  0  0  0  0
    0.0000    0.0000    0.0000 C   0  0  0  0  0  0  0  0  0  0  0  0
    0.0000    0.0000    0.0000 C   0  0  0  0  0  0  0  0  0  0  0  0
    0.0000    0.0000    0.0000 C   0  0  0  0  0  0  0  0  0  0  0  0
    0.0000    0.0000    0.0000 C   0  0  0  0  0  0  0  0  0  0  0  0
    0.0000    0.0000    0.0000 C   0  0  0  0  0  0  0  0  0  0  0  0
    0.0000    0.0000    0.0000 C   0  0  0  0  0  0  0  0  0  0  0  0
    0.0000    0.0000    0.0000 C   0  0  0  0  0  0  0  0  0  0  0  0
    0.0000    0.0000    0.0000 N   0  0  0  0  0  0  0  0  0  0  0  0
    0.0000    0.0000    0.0000 C   0  0  0  0  0  0  0  0  0  0  0  0
    0.0000    0.0000    0.0000 C   0  0  0  0  0  0  0  0  0  0  0  0
    0.0000    0.0000    0.0000 C   0  0  0  0  0  0  0  0  0  0  0  0
    0.0000    0.0000    0.0000 C   0  0  0  0  0  0  0  0  0  0  0  0
    0.0000    0.0000    0.0000 C   0  0  0  0  0  0  0  0  0  0  0  0
    0.0000    0.0000    0.0000 C   0  0  0  0  0  0  0  0  0  0  0  0
  1  2  1  0
  2  3  1  0
  3  4  1  0
  4  5  2  0
  4  6  1  0
  6  7  1  0
  7  8  2  0
  8  9  1  0
  9 10  2  0
 10 11  1  0
 11 12  1  0
 12 13  1  0
 13 14  1  0
 14 15  1  0
 15 16  1  0
 16 17  1  0
 17 18  1  0
 18 19  1  0
 19 20  1  0
 20 21  1  0
 21 22  1  0
 22 23  1  0
 23 24  1  0
 24 25  1  0
 18 26  1  0
 26 27  2  0
 27  7  1  0
 26 10  1  0
 21 12  1  0
 18 13  1  0
 25 23  1  0
M  END
>  <pIC50>  (440) 
8.0

>  <ChEMBL_ID>  (440) 
CHEMBL427862

>  <document_journal>  (440) 
Bioorg. Med. Chem. Lett.

>  <bao_endpoint>  (440) 
BAO_0000190

>  <potential_duplicate>  (440) 
False

>  <uo_units>  (440) 
UO_0000065

>  <canonical_smiles>  (440) 
CCNC(=O)Oc1ccc2CC3C4CCCCC4(CCN3CC5CC5)c2c1

>  <parent_molecule_chembl_id>  (440) 
CHEMBL427862

>  <assay_type>  (440) 
F

>  <src_id>  (440) 
1

>  <ligand_efficiency>  (440) 
None

>  <standard_flag>  (440) 
True

>  <molecule_chembl_id>  (440) 
CHEMBL427862

>  <target_organism>  (440) 
Homo sapiens

>  <standard_units>  (440) 
nM

>  <record_id>  (440) 
641624

>  <document_chembl_id>  (440) 
CHEMBL1144610

>  <bao_format>  (440) 
BAO_0000219

>  <data_validity_description>  (440) 
None

>  <activity_id>  (440) 
1896342

>  <standard_type>  (440) 
IC50

>  <target_chembl_id>  (440) 
CHEMBL233

>  <data_validity_comment>  (440) 
None

>  <published_value>  (440) 
10

>  <document_year>  (440) 
2007

>  <target_pref_name>  (440) 
Mu opioid receptor

>  <assay_chembl_id>  (440) 
CHEMBL887397

>  <standard_relation>  (440) 
=

>  <assay_description>  (440) 
Antagonist activity at human mu opioid receptor expressed in CHO cells assessed as DAMGO-stimulated [35S]GTP-gamma-S binding

>  <published_relation>  (440) 
=

>  <standard_value>  (440) 
10

>  <qudt_units>  (440) 
http://www.openphacts.org/units/Nanomolar

>  <target_tax_id>  (440) 
9606

>  <bao_label>  (440) 
cell-based format

>  <published_units>  (440) 
nM

>  <pchembl_value>  (440) 
8

>  <published_type>  (440) 
IC50

>  <activity_comment>  (440) 
None

$$$$

     RDKit          

 26 30  0  0  0  0  0  0  0  0999 V2000
    0.0000    0.0000    0.0000 N   0  0  0  0  0  0  0  0  0  0  0  0
    0.0000    0.0000    0.0000 C   0  0  0  0  0  0  0  0  0  0  0  0
    0.0000    0.0000    0.0000 O   0  0  0  0  0  0  0  0  0  0  0  0
    0.0000    0.0000    0.0000 N   0  0  0  0  0  0  0  0  0  0  0  0
    0.0000    0.0000    0.0000 C   0  0  0  0  0  0  0  0  0  0  0  0
    0.0000    0.0000    0.0000 C   0  0  0  0  0  0  0  0  0  0  0  0
    0.0000    0.0000    0.0000 C   0  0  0  0  0  0  0  0  0  0  0  0
    0.0000    0.0000    0.0000 C   0  0  0  0  0  0  0  0  0  0  0  0
    0.0000    0.0000    0.0000 C   0  0  0  0  0  0  0  0  0  0  0  0
    0.0000    0.0000    0.0000 C   0  0  0  0  0  0  0  0  0  0  0  0
    0.0000    0.0000    0.0000 C   0  0  0  0  0  0  0  0  0  0  0  0
    0.0000    0.0000    0.0000 C   0  0  0  0  0  0  0  0  0  0  0  0
    0.0000    0.0000    0.0000 C   0  0  0  0  0  0  0  0  0  0  0  0
    0.0000    0.0000    0.0000 C   0  0  0  0  0  0  0  0  0  0  0  0
    0.0000    0.0000    0.0000 C   0  0  0  0  0  0  0  0  0  0  0  0
    0.0000    0.0000    0.0000 C   0  0  0  0  0  0  0  0  0  0  0  0
    0.0000    0.0000    0.0000 C   0  0  0  0  0  0  0  0  0  0  0  0
    0.0000    0.0000    0.0000 C   0  0  0  0  0  0  0  0  0  0  0  0
    0.0000    0.0000    0.0000 N   0  0  0  0  0  0  0  0  0  0  0  0
    0.0000    0.0000    0.0000 C   0  0  0  0  0  0  0  0  0  0  0  0
    0.0000    0.0000    0.0000 C   0  0  0  0  0  0  0  0  0  0  0  0
    0.0000    0.0000    0.0000 C   0  0  0  0  0  0  0  0  0  0  0  0
    0.0000    0.0000    0.0000 C   0  0  0  0  0  0  0  0  0  0  0  0
    0.0000    0.0000    0.0000 C   0  0  0  0  0  0  0  0  0  0  0  0
    0.0000    0.0000    0.0000 C   0  0  0  0  0  0  0  0  0  0  0  0
    0.0000    0.0000    0.0000 C   0  0  0  0  0  0  0  0  0  0  0  0
  1  2  1  0
  2  3  2  0
  2  4  1  0
  4  5  1  0
  5  6  2  0
  6  7  1  0
  7  8  2  0
  8  9  1  0
  9 10  1  0
 10 11  1  0
 11 12  1  0
 12 13  1  0
 13 14  1  0
 14 15  1  0
 15 16  1  0
 16 17  1  0
 17 18  1  0
 18 19  1  0
 19 20  1  0
 20 21  1  0
 21 22  1  0
 22 23  1  0
 23 24  1  0
 16 25  1  0
 25 26  2  0
 26  5  1  0
 25  8  1  0
 19 10  1  0
 16 11  1  0
 24 21  1  0
M  END
>  <pIC50>  (441) 
5.82

>  <ChEMBL_ID>  (441) 
CHEMBL394573

>  <document_journal>  (441) 
Bioorg. Med. Chem.

>  <bao_endpoint>  (441) 
BAO_0000190

>  <potential_duplicate>  (441) 
False

>  <uo_units>  (441) 
UO_0000065

>  <canonical_smiles>  (441) 
NC(=O)Nc1ccc2C[C@@H]3[C@@H]4CCCC[C@]4(CCN3CC5CCC5)c2c1

>  <parent_molecule_chembl_id>  (441) 
CHEMBL394573

>  <assay_type>  (441) 
F

>  <src_id>  (441) 
1

>  <ligand_efficiency>  (441) 
None

>  <standard_flag>  (441) 
True

>  <molecule_chembl_id>  (441) 
CHEMBL394573

>  <target_organism>  (441) 
Homo sapiens

>  <standard_units>  (441) 
nM

>  <record_id>  (441) 
652142

>  <document_chembl_id>  (441) 
CHEMBL1147995

>  <bao_format>  (441) 
BAO_0000219

>  <data_validity_description>  (441) 
None

>  <activity_id>  (441) 
1944624

>  <standard_type>  (441) 
IC50

>  <target_chembl_id>  (441) 
CHEMBL233

>  <data_validity_comment>  (441) 
None

>  <published_value>  (441) 
1500

>  <document_year>  (441) 
2007

>  <target_pref_name>  (441) 
Mu opioid receptor

>  <assay_chembl_id>  (441) 
CHEMBL893251

>  <standard_relation>  (441) 
=

>  <assay_description>  (441) 
Antagonist activity at human mu opioid receptor expressed in CHO cells assessed as inhibition of DAMGO-induced [35S]GTPgammaS binding after 60 mins

>  <published_relation>  (441) 
=

>  <standard_value>  (441) 
1500

>  <qudt_units>  (441) 
http://www.openphacts.org/units/Nanomolar

>  <target_tax_id>  (441) 
9606

>  <bao_label>  (441) 
cell-based format

>  <published_units>  (441) 
nM

>  <pchembl_value>  (441) 
5.82

>  <published_type>  (441) 
IC50

>  <activity_comment>  (441) 
None

$$$$

     RDKit          

 25 29  0  0  0  0  0  0  0  0999 V2000
    0.0000    0.0000    0.0000 N   0  0  0  0  0  0  0  0  0  0  0  0
    0.0000    0.0000    0.0000 C   0  0  0  0  0  0  0  0  0  0  0  0
    0.0000    0.0000    0.0000 O   0  0  0  0  0  0  0  0  0  0  0  0
    0.0000    0.0000    0.0000 N   0  0  0  0  0  0  0  0  0  0  0  0
    0.0000    0.0000    0.0000 C   0  0  0  0  0  0  0  0  0  0  0  0
    0.0000    0.0000    0.0000 C   0  0  0  0  0  0  0  0  0  0  0  0
    0.0000    0.0000    0.0000 C   0  0  0  0  0  0  0  0  0  0  0  0
    0.0000    0.0000    0.0000 C   0  0  0  0  0  0  0  0  0  0  0  0
    0.0000    0.0000    0.0000 C   0  0  0  0  0  0  0  0  0  0  0  0
    0.0000    0.0000    0.0000 C   0  0  0  0  0  0  0  0  0  0  0  0
    0.0000    0.0000    0.0000 C   0  0  0  0  0  0  0  0  0  0  0  0
    0.0000    0.0000    0.0000 C   0  0  0  0  0  0  0  0  0  0  0  0
    0.0000    0.0000    0.0000 C   0  0  0  0  0  0  0  0  0  0  0  0
    0.0000    0.0000    0.0000 C   0  0  0  0  0  0  0  0  0  0  0  0
    0.0000    0.0000    0.0000 C   0  0  0  0  0  0  0  0  0  0  0  0
    0.0000    0.0000    0.0000 C   0  0  0  0  0  0  0  0  0  0  0  0
    0.0000    0.0000    0.0000 C   0  0  0  0  0  0  0  0  0  0  0  0
    0.0000    0.0000    0.0000 C   0  0  0  0  0  0  0  0  0  0  0  0
    0.0000    0.0000    0.0000 N   0  0  0  0  0  0  0  0  0  0  0  0
    0.0000    0.0000    0.0000 C   0  0  0  0  0  0  0  0  0  0  0  0
    0.0000    0.0000    0.0000 C   0  0  0  0  0  0  0  0  0  0  0  0
    0.0000    0.0000    0.0000 C   0  0  0  0  0  0  0  0  0  0  0  0
    0.0000    0.0000    0.0000 C   0  0  0  0  0  0  0  0  0  0  0  0
    0.0000    0.0000    0.0000 C   0  0  0  0  0  0  0  0  0  0  0  0
    0.0000    0.0000    0.0000 C   0  0  0  0  0  0  0  0  0  0  0  0
  1  2  1  0
  2  3  2  0
  2  4  1  0
  4  5  1  0
  5  6  2  0
  6  7  1  0
  7  8  2  0
  8  9  1  0
  9 10  1  0
 10 11  1  0
 11 12  1  0
 12 13  1  0
 13 14  1  0
 14 15  1  0
 15 16  1  0
 16 17  1  0
 17 18  1  0
 18 19  1  0
 19 20  1  0
 20 21  1  0
 21 22  1  0
 22 23  1  0
 16 24  1  0
 24 25  2  0
 25  5  1  0
 24  8  1  0
 19 10  1  0
 16 11  1  0
 23 21  1  0
M  END
>  <pIC50>  (442) 
6.42

>  <ChEMBL_ID>  (442) 
CHEMBL242968

>  <document_journal>  (442) 
Bioorg. Med. Chem.

>  <bao_endpoint>  (442) 
BAO_0000190

>  <potential_duplicate>  (442) 
False

>  <uo_units>  (442) 
UO_0000065

>  <canonical_smiles>  (442) 
NC(=O)Nc1ccc2C[C@@H]3[C@@H]4CCCC[C@]4(CCN3CC5CC5)c2c1

>  <parent_molecule_chembl_id>  (442) 
CHEMBL242968

>  <assay_type>  (442) 
F

>  <src_id>  (442) 
1

>  <ligand_efficiency>  (442) 
None

>  <standard_flag>  (442) 
True

>  <molecule_chembl_id>  (442) 
CHEMBL242968

>  <target_organism>  (442) 
Homo sapiens

>  <standard_units>  (442) 
nM

>  <record_id>  (442) 
652141

>  <document_chembl_id>  (442) 
CHEMBL1147995

>  <bao_format>  (442) 
BAO_0000219

>  <data_validity_description>  (442) 
None

>  <activity_id>  (442) 
1944626

>  <standard_type>  (442) 
IC50

>  <target_chembl_id>  (442) 
CHEMBL233

>  <data_validity_comment>  (442) 
None

>  <published_value>  (442) 
380

>  <document_year>  (442) 
2007

>  <target_pref_name>  (442) 
Mu opioid receptor

>  <assay_chembl_id>  (442) 
CHEMBL893251

>  <standard_relation>  (442) 
=

>  <assay_description>  (442) 
Antagonist activity at human mu opioid receptor expressed in CHO cells assessed as inhibition of DAMGO-induced [35S]GTPgammaS binding after 60 mins

>  <published_relation>  (442) 
=

>  <standard_value>  (442) 
380

>  <qudt_units>  (442) 
http://www.openphacts.org/units/Nanomolar

>  <target_tax_id>  (442) 
9606

>  <bao_label>  (442) 
cell-based format

>  <published_units>  (442) 
nM

>  <pchembl_value>  (442) 
6.42

>  <published_type>  (442) 
IC50

>  <activity_comment>  (442) 
None

$$$$

     RDKit          

 35 40  0  0  0  0  0  0  0  0999 V2000
    0.0000    0.0000    0.0000 C   0  0  0  0  0  0  0  0  0  0  0  0
    0.0000    0.0000    0.0000 C   0  0  0  0  0  0  0  0  0  0  0  0
    0.0000    0.0000    0.0000 C   0  0  0  0  0  0  0  0  0  0  0  0
    0.0000    0.0000    0.0000 C   0  0  0  0  0  0  0  0  0  0  0  0
    0.0000    0.0000    0.0000 C   0  0  0  0  0  0  0  0  0  0  0  0
    0.0000    0.0000    0.0000 C   0  0  0  0  0  0  0  0  0  0  0  0
    0.0000    0.0000    0.0000 C   0  0  0  0  0  0  0  0  0  0  0  0
    0.0000    0.0000    0.0000 C   0  0  0  0  0  0  0  0  0  0  0  0
    0.0000    0.0000    0.0000 C   0  0  0  0  0  0  0  0  0  0  0  0
    0.0000    0.0000    0.0000 C   0  0  0  0  0  0  0  0  0  0  0  0
    0.0000    0.0000    0.0000 C   0  0  0  0  0  0  0  0  0  0  0  0
    0.0000    0.0000    0.0000 C   0  0  0  0  0  0  0  0  0  0  0  0
    0.0000    0.0000    0.0000 C   0  0  0  0  0  0  0  0  0  0  0  0
    0.0000    0.0000    0.0000 C   0  0  0  0  0  0  0  0  0  0  0  0
    0.0000    0.0000    0.0000 N   0  0  0  0  0  0  0  0  0  0  0  0
    0.0000    0.0000    0.0000 C   0  0  0  0  0  0  0  0  0  0  0  0
    0.0000    0.0000    0.0000 C   0  0  0  0  0  0  0  0  0  0  0  0
    0.0000    0.0000    0.0000 C   0  0  0  0  0  0  0  0  0  0  0  0
    0.0000    0.0000    0.0000 C   0  0  0  0  0  0  0  0  0  0  0  0
    0.0000    0.0000    0.0000 C   0  0  0  0  0  0  0  0  0  0  0  0
    0.0000    0.0000    0.0000 O   0  0  0  0  0  0  0  0  0  0  0  0
    0.0000    0.0000    0.0000 N   0  0  0  0  0  0  0  0  0  0  0  0
    0.0000    0.0000    0.0000 C   0  0  0  0  0  0  0  0  0  0  0  0
    0.0000    0.0000    0.0000 C   0  0  0  0  0  0  0  0  0  0  0  0
    0.0000    0.0000    0.0000 C   0  0  0  0  0  0  0  0  0  0  0  0
    0.0000    0.0000    0.0000 C   0  0  0  0  0  0  0  0  0  0  0  0
    0.0000    0.0000    0.0000 C   0  0  0  0  0  0  0  0  0  0  0  0
    0.0000    0.0000    0.0000 C   0  0  0  0  0  0  0  0  0  0  0  0
    0.0000    0.0000    0.0000 C   0  0  0  0  0  0  0  0  0  0  0  0
    0.0000    0.0000    0.0000 C   0  0  0  0  0  0  0  0  0  0  0  0
    0.0000    0.0000    0.0000 C   0  0  0  0  0  0  0  0  0  0  0  0
    0.0000    0.0000    0.0000 C   0  0  0  0  0  0  0  0  0  0  0  0
    0.0000    0.0000    0.0000 C   0  0  0  0  0  0  0  0  0  0  0  0
    0.0000    0.0000    0.0000 C   0  0  0  0  0  0  0  0  0  0  0  0
    0.0000    0.0000    0.0000 C   0  0  0  0  0  0  0  0  0  0  0  0
  1  2  1  0
  2  3  1  0
  3  4  1  0
  4  5  1  0
  5  6  2  0
  6  7  1  0
  7  8  2  0
  8  9  1  0
  9 10  2  0
 10 11  1  0
 11 12  1  0
 11 13  1  0
 13 14  1  0
 14 15  1  0
 15 16  1  0
 16 17  1  0
 17 18  1  0
 18 19  1  0
  8 20  1  0
 20 21  2  0
 20 22  1  0
 22 23  1  0
 23 24  1  0
 24 25  1  0
 25 26  1  0
 26 27  2  0
 27 28  1  0
 28 29  2  0
 29 30  1  0
 30 31  2  0
 31 32  1  0
 32 33  2  0
 33 34  1  0
 34 35  2  0
 11  2  1  0
 15  3  1  0
 10  5  1  0
 19 17  1  0
 35 26  1  0
 34 29  1  0
M  END
>  <pIC50>  (443) 
6.5

>  <ChEMBL_ID>  (443) 
CHEMBL430397

>  <document_journal>  (443) 
Bioorg. Med. Chem. Lett.

>  <bao_endpoint>  (443) 
BAO_0000190

>  <potential_duplicate>  (443) 
False

>  <uo_units>  (443) 
UO_0000065

>  <canonical_smiles>  (443) 
C[C@H]1C2Cc3ccc(cc3[C@@]1(C)CCN2CC4CC4)C(=O)NCCCc5ccc6ccccc6c5

>  <parent_molecule_chembl_id>  (443) 
CHEMBL430397

>  <assay_type>  (443) 
F

>  <src_id>  (443) 
1

>  <ligand_efficiency>  (443) 
None

>  <standard_flag>  (443) 
True

>  <molecule_chembl_id>  (443) 
CHEMBL430397

>  <target_organism>  (443) 
Homo sapiens

>  <standard_units>  (443) 
nM

>  <record_id>  (443) 
680823

>  <document_chembl_id>  (443) 
CHEMBL1140563

>  <bao_format>  (443) 
BAO_0000219

>  <data_validity_description>  (443) 
None

>  <activity_id>  (443) 
2051446

>  <standard_type>  (443) 
IC50

>  <target_chembl_id>  (443) 
CHEMBL233

>  <data_validity_comment>  (443) 
None

>  <published_value>  (443) 
320

>  <document_year>  (443) 
2007

>  <target_pref_name>  (443) 
Mu opioid receptor

>  <assay_chembl_id>  (443) 
CHEMBL942703

>  <standard_relation>  (443) 
=

>  <assay_description>  (443) 
Antagonist activity at human mu opioid receptor expressed in CHO cell membrane assessed as inhibition of DAMGO induced [35S]GTP-gamma-S binding

>  <published_relation>  (443) 
=

>  <standard_value>  (443) 
320

>  <qudt_units>  (443) 
http://www.openphacts.org/units/Nanomolar

>  <target_tax_id>  (443) 
9606

>  <bao_label>  (443) 
cell-based format

>  <published_units>  (443) 
nM

>  <pchembl_value>  (443) 
6.5

>  <published_type>  (443) 
IC50

>  <activity_comment>  (443) 
None

$$$$

     RDKit          

 38 43  0  0  0  0  0  0  0  0999 V2000
    0.0000    0.0000    0.0000 C   0  0  0  0  0  0  0  0  0  0  0  0
    0.0000    0.0000    0.0000 O   0  0  0  0  0  0  0  0  0  0  0  0
    0.0000    0.0000    0.0000 C   0  0  0  0  0  0  0  0  0  0  0  0
    0.0000    0.0000    0.0000 C   0  0  0  0  0  0  0  0  0  0  0  0
    0.0000    0.0000    0.0000 C   0  0  0  0  0  0  0  0  0  0  0  0
    0.0000    0.0000    0.0000 C   0  0  0  0  0  0  0  0  0  0  0  0
    0.0000    0.0000    0.0000 C   0  0  0  0  0  0  0  0  0  0  0  0
    0.0000    0.0000    0.0000 C   0  0  0  0  0  0  0  0  0  0  0  0
    0.0000    0.0000    0.0000 C   0  0  0  0  0  0  0  0  0  0  0  0
    0.0000    0.0000    0.0000 C   0  0  0  0  0  0  0  0  0  0  0  0
    0.0000    0.0000    0.0000 C   0  0  0  0  0  0  0  0  0  0  0  0
    0.0000    0.0000    0.0000 C   0  0  0  0  0  0  0  0  0  0  0  0
    0.0000    0.0000    0.0000 C   0  0  0  0  0  0  0  0  0  0  0  0
    0.0000    0.0000    0.0000 C   0  0  0  0  0  0  0  0  0  0  0  0
    0.0000    0.0000    0.0000 N   0  0  0  0  0  0  0  0  0  0  0  0
    0.0000    0.0000    0.0000 C   0  0  0  0  0  0  0  0  0  0  0  0
    0.0000    0.0000    0.0000 O   0  0  0  0  0  0  0  0  0  0  0  0
    0.0000    0.0000    0.0000 C   0  0  0  0  0  0  0  0  0  0  0  0
    0.0000    0.0000    0.0000 C   0  0  0  0  0  0  0  0  0  0  0  0
    0.0000    0.0000    0.0000 C   0  0  0  0  0  0  0  0  0  0  0  0
    0.0000    0.0000    0.0000 C   0  0  0  0  0  0  0  0  0  0  0  0
    0.0000    0.0000    0.0000 C   0  0  0  0  0  0  0  0  0  0  0  0
    0.0000    0.0000    0.0000 C   0  0  0  0  0  0  0  0  0  0  0  0
    0.0000    0.0000    0.0000 C   0  0  0  0  0  0  0  0  0  0  0  0
    0.0000    0.0000    0.0000 C   0  0  0  0  0  0  0  0  0  0  0  0
    0.0000    0.0000    0.0000 C   0  0  0  0  0  0  0  0  0  0  0  0
    0.0000    0.0000    0.0000 C   0  0  0  0  0  0  0  0  0  0  0  0
    0.0000    0.0000    0.0000 C   0  0  0  0  0  0  0  0  0  0  0  0
    0.0000    0.0000    0.0000 C   0  0  0  0  0  0  0  0  0  0  0  0
    0.0000    0.0000    0.0000 N   0  0  0  0  0  0  0  0  0  0  0  0
    0.0000    0.0000    0.0000 C   0  0  0  0  0  0  0  0  0  0  0  0
    0.0000    0.0000    0.0000 C   0  0  0  0  0  0  0  0  0  0  0  0
    0.0000    0.0000    0.0000 C   0  0  0  0  0  0  0  0  0  0  0  0
    0.0000    0.0000    0.0000 C   0  0  0  0  0  0  0  0  0  0  0  0
    0.0000    0.0000    0.0000 C   0  0  0  0  0  0  0  0  0  0  0  0
    0.0000    0.0000    0.0000 C   0  0  0  0  0  0  0  0  0  0  0  0
    0.0000    0.0000    0.0000 C   0  0  0  0  0  0  0  0  0  0  0  0
    0.0000    0.0000    0.0000 C   0  0  0  0  0  0  0  0  0  0  0  0
  1  2  1  0
  2  3  1  0
  3  4  2  0
  4  5  1  0
  5  6  2  0
  6  7  1  0
  7  8  2  0
  6  9  1  0
  9 10  2  0
 10 11  1  0
 11 12  2  0
 12 13  1  0
 13 14  1  0
 14 15  1  0
 15 16  1  0
 16 17  2  0
 16 18  1  0
 18 19  2  0
 19 20  1  0
 20 21  2  0
 21 22  1  0
 22 23  1  0
 23 24  1  0
 24 25  1  0
 24 26  1  0
 26 27  1  0
 26 28  1  0
 28 29  1  0
 29 30  1  0
 30 31  1  0
 31 32  1  0
 32 33  1  0
 33 34  1  0
 26 35  1  0
 35 36  2  0
 12 37  1  0
 37 38  2  0
  8  3  1  0
 38  9  1  0
 36 18  1  0
 35 21  1  0
 30 23  1  0
 34 32  1  0
M  END
>  <pIC50>  (444) 
7.62

>  <ChEMBL_ID>  (444) 
CHEMBL249985

>  <document_journal>  (444) 
Bioorg. Med. Chem. Lett.

>  <bao_endpoint>  (444) 
BAO_0000190

>  <potential_duplicate>  (444) 
False

>  <uo_units>  (444) 
UO_0000065

>  <canonical_smiles>  (444) 
COc1ccc(cc1)c2ccc(CCNC(=O)c3ccc4CC5[C@H](C)[C@](C)(CCN5CC6CC6)c4c3)cc2

>  <parent_molecule_chembl_id>  (444) 
CHEMBL249985

>  <assay_type>  (444) 
F

>  <src_id>  (444) 
1

>  <ligand_efficiency>  (444) 
None

>  <standard_flag>  (444) 
True

>  <molecule_chembl_id>  (444) 
CHEMBL249985

>  <target_organism>  (444) 
Homo sapiens

>  <standard_units>  (444) 
nM

>  <record_id>  (444) 
680817

>  <document_chembl_id>  (444) 
CHEMBL1140563

>  <bao_format>  (444) 
BAO_0000219

>  <data_validity_description>  (444) 
None

>  <activity_id>  (444) 
2051448

>  <standard_type>  (444) 
IC50

>  <target_chembl_id>  (444) 
CHEMBL233

>  <data_validity_comment>  (444) 
None

>  <published_value>  (444) 
24

>  <document_year>  (444) 
2007

>  <target_pref_name>  (444) 
Mu opioid receptor

>  <assay_chembl_id>  (444) 
CHEMBL942703

>  <standard_relation>  (444) 
=

>  <assay_description>  (444) 
Antagonist activity at human mu opioid receptor expressed in CHO cell membrane assessed as inhibition of DAMGO induced [35S]GTP-gamma-S binding

>  <published_relation>  (444) 
=

>  <standard_value>  (444) 
24

>  <qudt_units>  (444) 
http://www.openphacts.org/units/Nanomolar

>  <target_tax_id>  (444) 
9606

>  <bao_label>  (444) 
cell-based format

>  <published_units>  (444) 
nM

>  <pchembl_value>  (444) 
7.62

>  <published_type>  (444) 
IC50

>  <activity_comment>  (444) 
None

$$$$

     RDKit          

 31 35  0  0  0  0  0  0  0  0999 V2000
    0.0000    0.0000    0.0000 C   0  0  0  0  0  0  0  0  0  0  0  0
    0.0000    0.0000    0.0000 C   0  0  0  0  0  0  0  0  0  0  0  0
    0.0000    0.0000    0.0000 C   0  0  0  0  0  0  0  0  0  0  0  0
    0.0000    0.0000    0.0000 C   0  0  0  0  0  0  0  0  0  0  0  0
    0.0000    0.0000    0.0000 C   0  0  0  0  0  0  0  0  0  0  0  0
    0.0000    0.0000    0.0000 C   0  0  0  0  0  0  0  0  0  0  0  0
    0.0000    0.0000    0.0000 C   0  0  0  0  0  0  0  0  0  0  0  0
    0.0000    0.0000    0.0000 C   0  0  0  0  0  0  0  0  0  0  0  0
    0.0000    0.0000    0.0000 C   0  0  0  0  0  0  0  0  0  0  0  0
    0.0000    0.0000    0.0000 C   0  0  0  0  0  0  0  0  0  0  0  0
    0.0000    0.0000    0.0000 C   0  0  0  0  0  0  0  0  0  0  0  0
    0.0000    0.0000    0.0000 C   0  0  0  0  0  0  0  0  0  0  0  0
    0.0000    0.0000    0.0000 C   0  0  0  0  0  0  0  0  0  0  0  0
    0.0000    0.0000    0.0000 C   0  0  0  0  0  0  0  0  0  0  0  0
    0.0000    0.0000    0.0000 N   0  0  0  0  0  0  0  0  0  0  0  0
    0.0000    0.0000    0.0000 C   0  0  0  0  0  0  0  0  0  0  0  0
    0.0000    0.0000    0.0000 C   0  0  0  0  0  0  0  0  0  0  0  0
    0.0000    0.0000    0.0000 C   0  0  0  0  0  0  0  0  0  0  0  0
    0.0000    0.0000    0.0000 C   0  0  0  0  0  0  0  0  0  0  0  0
    0.0000    0.0000    0.0000 C   0  0  0  0  0  0  0  0  0  0  0  0
    0.0000    0.0000    0.0000 O   0  0  0  0  0  0  0  0  0  0  0  0
    0.0000    0.0000    0.0000 N   0  0  0  0  0  0  0  0  0  0  0  0
    0.0000    0.0000    0.0000 C   0  0  0  0  0  0  0  0  0  0  0  0
    0.0000    0.0000    0.0000 C   0  0  0  0  0  0  0  0  0  0  0  0
    0.0000    0.0000    0.0000 C   0  0  0  0  0  0  0  0  0  0  0  0
    0.0000    0.0000    0.0000 C   0  0  0  0  0  0  0  0  0  0  0  0
    0.0000    0.0000    0.0000 C   0  0  0  0  0  0  0  0  0  0  0  0
    0.0000    0.0000    0.0000 C   0  0  0  0  0  0  0  0  0  0  0  0
    0.0000    0.0000    0.0000 C   0  0  0  0  0  0  0  0  0  0  0  0
    0.0000    0.0000    0.0000 Br  0  0  0  0  0  0  0  0  0  0  0  0
    0.0000    0.0000    0.0000 C   0  0  0  0  0  0  0  0  0  0  0  0
  1  2  1  0
  2  3  1  0
  3  4  1  0
  4  5  1  0
  5  6  2  0
  6  7  1  0
  7  8  2  0
  8  9  1  0
  9 10  2  0
 10 11  1  0
 11 12  1  0
 11 13  1  0
 13 14  1  0
 14 15  1  0
 15 16  1  0
 16 17  1  0
 17 18  1  0
 18 19  1  0
  8 20  1  0
 20 21  2  0
 20 22  1  0
 22 23  1  0
 23 24  1  0
 24 25  1  0
 25 26  2  0
 26 27  1  0
 27 28  2  0
 28 29  1  0
 29 30  1  0
 29 31  2  0
 11  2  1  0
 15  3  1  0
 10  5  1  0
 19 17  1  0
 31 25  1  0
M  END
>  <pIC50>  (445) 
6.64

>  <ChEMBL_ID>  (445) 
CHEMBL250993

>  <document_journal>  (445) 
Bioorg. Med. Chem. Lett.

>  <bao_endpoint>  (445) 
BAO_0000190

>  <potential_duplicate>  (445) 
False

>  <uo_units>  (445) 
UO_0000065

>  <canonical_smiles>  (445) 
C[C@H]1C2Cc3ccc(cc3[C@@]1(C)CCN2CC4CC4)C(=O)NCCc5cccc(Br)c5

>  <parent_molecule_chembl_id>  (445) 
CHEMBL250993

>  <assay_type>  (445) 
F

>  <src_id>  (445) 
1

>  <ligand_efficiency>  (445) 
None

>  <standard_flag>  (445) 
True

>  <molecule_chembl_id>  (445) 
CHEMBL250993

>  <target_organism>  (445) 
Homo sapiens

>  <standard_units>  (445) 
nM

>  <record_id>  (445) 
680815

>  <document_chembl_id>  (445) 
CHEMBL1140563

>  <bao_format>  (445) 
BAO_0000219

>  <data_validity_description>  (445) 
None

>  <activity_id>  (445) 
2051450

>  <standard_type>  (445) 
IC50

>  <target_chembl_id>  (445) 
CHEMBL233

>  <data_validity_comment>  (445) 
None

>  <published_value>  (445) 
230

>  <document_year>  (445) 
2007

>  <target_pref_name>  (445) 
Mu opioid receptor

>  <assay_chembl_id>  (445) 
CHEMBL942703

>  <standard_relation>  (445) 
=

>  <assay_description>  (445) 
Antagonist activity at human mu opioid receptor expressed in CHO cell membrane assessed as inhibition of DAMGO induced [35S]GTP-gamma-S binding

>  <published_relation>  (445) 
=

>  <standard_value>  (445) 
230

>  <qudt_units>  (445) 
http://www.openphacts.org/units/Nanomolar

>  <target_tax_id>  (445) 
9606

>  <bao_label>  (445) 
cell-based format

>  <published_units>  (445) 
nM

>  <pchembl_value>  (445) 
6.64

>  <published_type>  (445) 
IC50

>  <activity_comment>  (445) 
None

$$$$

     RDKit          

 18 19  0  0  0  0  0  0  0  0999 V2000
    0.0000    0.0000    0.0000 C   0  0  0  0  0  0  0  0  0  0  0  0
    0.0000    0.0000    0.0000 O   0  0  0  0  0  0  0  0  0  0  0  0
    0.0000    0.0000    0.0000 C   0  0  0  0  0  0  0  0  0  0  0  0
    0.0000    0.0000    0.0000 C   0  0  0  0  0  0  0  0  0  0  0  0
    0.0000    0.0000    0.0000 C   0  0  0  0  0  0  0  0  0  0  0  0
    0.0000    0.0000    0.0000 C   0  0  0  0  0  0  0  0  0  0  0  0
    0.0000    0.0000    0.0000 C   0  0  0  0  0  0  0  0  0  0  0  0
    0.0000    0.0000    0.0000 C   0  0  0  0  0  0  0  0  0  0  0  0
    0.0000    0.0000    0.0000 C   0  0  0  0  0  0  0  0  0  0  0  0
    0.0000    0.0000    0.0000 N   0  0  0  0  0  0  0  0  0  0  0  0
    0.0000    0.0000    0.0000 C   0  0  0  0  0  0  0  0  0  0  0  0
    0.0000    0.0000    0.0000 C   0  0  0  0  0  0  0  0  0  0  0  0
    0.0000    0.0000    0.0000 C   0  0  0  0  0  0  0  0  0  0  0  0
    0.0000    0.0000    0.0000 C   0  0  0  0  0  0  0  0  0  0  0  0
    0.0000    0.0000    0.0000 C   0  0  0  0  0  0  0  0  0  0  0  0
    0.0000    0.0000    0.0000 C   0  0  0  0  0  0  0  0  0  0  0  0
    0.0000    0.0000    0.0000 C   0  0  0  0  0  0  0  0  0  0  0  0
    0.0000    0.0000    0.0000 C   0  0  0  0  0  0  0  0  0  0  0  0
  1  2  1  0
  2  3  1  0
  3  4  1  0
  4  5  1  0
  5  6  1  0
  6  7  1  0
  7  8  1  0
  8  9  1  0
  9 10  1  0
 10 11  1  0
 10 12  1  0
  3 13  1  0
 13 14  2  0
 14 15  1  0
 15 16  2  0
 16 17  1  0
 17 18  2  0
  8  3  1  0
 18 13  1  0
M  END
>  <pIC50>  (446) 
5.455

>  <ChEMBL_ID>  (446) 
CHEMBL258336

>  <document_journal>  (446) 
Bioorg. Med. Chem. Lett.

>  <bao_endpoint>  (446) 
BAO_0000190

>  <potential_duplicate>  (446) 
False

>  <uo_units>  (446) 
UO_0000065

>  <canonical_smiles>  (446) 
CO[C@@]1(CCCC[C@@H]1CN(C)C)c2ccccc2

>  <parent_molecule_chembl_id>  (446) 
CHEMBL258336

>  <assay_type>  (446) 
B

>  <src_id>  (446) 
1

>  <ligand_efficiency>  (446) 
{u'le': u'0.42', u'bei': u'22.58', u'sei': u'44.8', u'lle': u'2.46'}

>  <standard_flag>  (446) 
True

>  <molecule_chembl_id>  (446) 
CHEMBL258336

>  <target_organism>  (446) 
Homo sapiens

>  <standard_units>  (446) 
nM

>  <record_id>  (446) 
691776

>  <document_chembl_id>  (446) 
CHEMBL1141623

>  <bao_format>  (446) 
BAO_0000357

>  <data_validity_description>  (446) 
None

>  <activity_id>  (446) 
2103942

>  <standard_type>  (446) 
IC50

>  <target_chembl_id>  (446) 
CHEMBL233

>  <data_validity_comment>  (446) 
None

>  <published_value>  (446) 
2590

>  <document_year>  (446) 
2008

>  <target_pref_name>  (446) 
Mu opioid receptor

>  <assay_chembl_id>  (446) 
CHEMBL948139

>  <standard_relation>  (446) 
=

>  <assay_description>  (446) 
Binding affinity to mu opioid receptor

>  <published_relation>  (446) 
=

>  <standard_value>  (446) 
2590

>  <qudt_units>  (446) 
http://www.openphacts.org/units/Nanomolar

>  <target_tax_id>  (446) 
9606

>  <bao_label>  (446) 
single protein format

>  <published_units>  (446) 
nM

>  <pchembl_value>  (446) 
5.59

>  <published_type>  (446) 
IC50

>  <activity_comment>  (446) 
None

$$$$

     RDKit          

 18 19  0  0  0  0  0  0  0  0999 V2000
    0.0000    0.0000    0.0000 C   0  0  0  0  0  0  0  0  0  0  0  0
    0.0000    0.0000    0.0000 N   0  0  0  0  0  0  0  0  0  0  0  0
    0.0000    0.0000    0.0000 C   0  0  0  0  0  0  0  0  0  0  0  0
    0.0000    0.0000    0.0000 C   0  0  0  0  0  0  0  0  0  0  0  0
    0.0000    0.0000    0.0000 C   0  0  0  0  0  0  0  0  0  0  0  0
    0.0000    0.0000    0.0000 C   0  0  0  0  0  0  0  0  0  0  0  0
    0.0000    0.0000    0.0000 C   0  0  0  0  0  0  0  0  0  0  0  0
    0.0000    0.0000    0.0000 C   0  0  0  0  0  0  0  0  0  0  0  0
    0.0000    0.0000    0.0000 C   0  0  0  0  0  0  0  0  0  0  0  0
    0.0000    0.0000    0.0000 O   0  0  0  0  0  0  0  0  0  0  0  0
    0.0000    0.0000    0.0000 C   0  0  0  0  0  0  0  0  0  0  0  0
    0.0000    0.0000    0.0000 C   0  0  0  0  0  0  0  0  0  0  0  0
    0.0000    0.0000    0.0000 C   0  0  0  0  0  0  0  0  0  0  0  0
    0.0000    0.0000    0.0000 C   0  0  0  0  0  0  0  0  0  0  0  0
    0.0000    0.0000    0.0000 C   0  0  0  0  0  0  0  0  0  0  0  0
    0.0000    0.0000    0.0000 C   0  0  0  0  0  0  0  0  0  0  0  0
    0.0000    0.0000    0.0000 O   0  0  0  0  0  0  0  0  0  0  0  0
    0.0000    0.0000    0.0000 C   0  0  0  0  0  0  0  0  0  0  0  0
  1  2  1  0
  2  3  1  0
  3  4  1  0
  4  5  1  0
  5  6  1  0
  6  7  1  0
  7  8  1  0
  8  9  1  0
  9 10  1  0
 10 11  1  0
  9 12  1  0
 12 13  2  0
 13 14  1  0
 14 15  2  0
 15 16  1  0
 16 17  1  0
 16 18  2  0
  9  4  1  0
 18 12  1  0
M  END
>  <pIC50>  (447) 
7.08

>  <ChEMBL_ID>  (447) 
CHEMBL407563

>  <document_journal>  (447) 
Bioorg. Med. Chem. Lett.

>  <bao_endpoint>  (447) 
BAO_0000190

>  <potential_duplicate>  (447) 
False

>  <uo_units>  (447) 
UO_0000065

>  <canonical_smiles>  (447) 
CNC[C@@H]1CCCC[C@@]1(OC)c2cccc(O)c2

>  <parent_molecule_chembl_id>  (447) 
CHEMBL407563

>  <assay_type>  (447) 
B

>  <src_id>  (447) 
1

>  <ligand_efficiency>  (447) 
{u'le': u'0.54', u'bei': u'28.38', u'sei': u'17.06', u'lle': u'4.73'}

>  <standard_flag>  (447) 
True

>  <molecule_chembl_id>  (447) 
CHEMBL407563

>  <target_organism>  (447) 
Homo sapiens

>  <standard_units>  (447) 
nM

>  <record_id>  (447) 
691775

>  <document_chembl_id>  (447) 
CHEMBL1141623

>  <bao_format>  (447) 
BAO_0000357

>  <data_validity_description>  (447) 
None

>  <activity_id>  (447) 
2103943

>  <standard_type>  (447) 
IC50

>  <target_chembl_id>  (447) 
CHEMBL233

>  <data_validity_comment>  (447) 
None

>  <published_value>  (447) 
84

>  <document_year>  (447) 
2008

>  <target_pref_name>  (447) 
Mu opioid receptor

>  <assay_chembl_id>  (447) 
CHEMBL948139

>  <standard_relation>  (447) 
=

>  <assay_description>  (447) 
Binding affinity to mu opioid receptor

>  <published_relation>  (447) 
=

>  <standard_value>  (447) 
84

>  <qudt_units>  (447) 
http://www.openphacts.org/units/Nanomolar

>  <target_tax_id>  (447) 
9606

>  <bao_label>  (447) 
single protein format

>  <published_units>  (447) 
nM

>  <pchembl_value>  (447) 
7.08

>  <published_type>  (447) 
IC50

>  <activity_comment>  (447) 
None

$$$$

     RDKit          

 18 19  0  0  0  0  0  0  0  0999 V2000
    0.0000    0.0000    0.0000 C   0  0  0  0  0  0  0  0  0  0  0  0
    0.0000    0.0000    0.0000 N   0  0  0  0  0  0  0  0  0  0  0  0
    0.0000    0.0000    0.0000 C   0  0  0  0  0  0  0  0  0  0  0  0
    0.0000    0.0000    0.0000 C   0  0  0  0  0  0  0  0  0  0  0  0
    0.0000    0.0000    0.0000 C   0  0  0  0  0  0  0  0  0  0  0  0
    0.0000    0.0000    0.0000 C   0  0  0  0  0  0  0  0  0  0  0  0
    0.0000    0.0000    0.0000 C   0  0  0  0  0  0  0  0  0  0  0  0
    0.0000    0.0000    0.0000 C   0  0  0  0  0  0  0  0  0  0  0  0
    0.0000    0.0000    0.0000 C   0  0  0  0  0  0  0  0  0  0  0  0
    0.0000    0.0000    0.0000 O   0  0  0  0  0  0  0  0  0  0  0  0
    0.0000    0.0000    0.0000 C   0  0  0  0  0  0  0  0  0  0  0  0
    0.0000    0.0000    0.0000 C   0  0  0  0  0  0  0  0  0  0  0  0
    0.0000    0.0000    0.0000 C   0  0  0  0  0  0  0  0  0  0  0  0
    0.0000    0.0000    0.0000 C   0  0  0  0  0  0  0  0  0  0  0  0
    0.0000    0.0000    0.0000 C   0  0  0  0  0  0  0  0  0  0  0  0
    0.0000    0.0000    0.0000 C   0  0  0  0  0  0  0  0  0  0  0  0
    0.0000    0.0000    0.0000 O   0  0  0  0  0  0  0  0  0  0  0  0
    0.0000    0.0000    0.0000 C   0  0  0  0  0  0  0  0  0  0  0  0
  1  2  1  0
  2  3  1  0
  3  4  1  0
  4  5  1  0
  5  6  1  0
  6  7  1  0
  7  8  1  0
  8  9  1  0
  9 10  1  0
 10 11  1  0
  9 12  1  0
 12 13  2  0
 13 14  1  0
 14 15  2  0
 15 16  1  0
 16 17  1  0
 16 18  2  0
  9  4  1  0
 18 12  1  0
M  END
>  <pIC50>  (448) 
7.115

>  <ChEMBL_ID>  (448) 
CHEMBL402116

>  <document_journal>  (448) 
Bioorg. Med. Chem. Lett.

>  <bao_endpoint>  (448) 
BAO_0000190

>  <potential_duplicate>  (448) 
False

>  <uo_units>  (448) 
UO_0000065

>  <canonical_smiles>  (448) 
CNC[C@H]1CCCC[C@]1(OC)c2cccc(O)c2

>  <parent_molecule_chembl_id>  (448) 
CHEMBL402116

>  <assay_type>  (448) 
B

>  <src_id>  (448) 
1

>  <ligand_efficiency>  (448) 
{u'le': u'0.56', u'bei': u'29.35', u'sei': u'17.64', u'lle': u'4.97'}

>  <standard_flag>  (448) 
True

>  <molecule_chembl_id>  (448) 
CHEMBL402116

>  <target_organism>  (448) 
Homo sapiens

>  <standard_units>  (448) 
nM

>  <record_id>  (448) 
691774

>  <document_chembl_id>  (448) 
CHEMBL1141623

>  <bao_format>  (448) 
BAO_0000357

>  <data_validity_description>  (448) 
None

>  <activity_id>  (448) 
2103944

>  <standard_type>  (448) 
IC50

>  <target_chembl_id>  (448) 
CHEMBL233

>  <data_validity_comment>  (448) 
None

>  <published_value>  (448) 
48

>  <document_year>  (448) 
2008

>  <target_pref_name>  (448) 
Mu opioid receptor

>  <assay_chembl_id>  (448) 
CHEMBL948139

>  <standard_relation>  (448) 
=

>  <assay_description>  (448) 
Binding affinity to mu opioid receptor

>  <published_relation>  (448) 
=

>  <standard_value>  (448) 
48

>  <qudt_units>  (448) 
http://www.openphacts.org/units/Nanomolar

>  <target_tax_id>  (448) 
9606

>  <bao_label>  (448) 
single protein format

>  <published_units>  (448) 
nM

>  <pchembl_value>  (448) 
7.32

>  <published_type>  (448) 
IC50

>  <activity_comment>  (448) 
None

$$$$

     RDKit          

 23 24  0  0  0  0  0  0  0  0999 V2000
    0.0000    0.0000    0.0000 C   0  0  0  0  0  0  0  0  0  0  0  0
    0.0000    0.0000    0.0000 O   0  0  0  0  0  0  0  0  0  0  0  0
    0.0000    0.0000    0.0000 C   0  0  0  0  0  0  0  0  0  0  0  0
    0.0000    0.0000    0.0000 C   0  0  0  0  0  0  0  0  0  0  0  0
    0.0000    0.0000    0.0000 C   0  0  0  0  0  0  0  0  0  0  0  0
    0.0000    0.0000    0.0000 C   0  0  0  0  0  0  0  0  0  0  0  0
    0.0000    0.0000    0.0000 C   0  0  0  0  0  0  0  0  0  0  0  0
    0.0000    0.0000    0.0000 C   0  0  0  0  0  0  0  0  0  0  0  0
    0.0000    0.0000    0.0000 C   0  0  0  0  0  0  0  0  0  0  0  0
    0.0000    0.0000    0.0000 C   0  0  0  0  0  0  0  0  0  0  0  0
    0.0000    0.0000    0.0000 C   0  0  0  0  0  0  0  0  0  0  0  0
    0.0000    0.0000    0.0000 C   0  0  0  0  0  0  0  0  0  0  0  0
    0.0000    0.0000    0.0000 C   0  0  0  0  0  0  0  0  0  0  0  0
    0.0000    0.0000    0.0000 C   0  0  0  0  0  0  0  0  0  0  0  0
    0.0000    0.0000    0.0000 C   0  0  0  0  0  0  0  0  0  0  0  0
    0.0000    0.0000    0.0000 N   0  0  0  0  0  0  0  0  0  0  0  0
    0.0000    0.0000    0.0000 C   0  0  0  0  0  0  0  0  0  0  0  0
    0.0000    0.0000    0.0000 C   0  0  0  0  0  0  0  0  0  0  0  0
    0.0000    0.0000    0.0000 O   0  0  0  0  0  0  0  0  0  0  0  0
    0.0000    0.0000    0.0000 C   0  0  0  0  0  0  0  0  0  0  0  0
    0.0000    0.0000    0.0000 C   0  0  0  0  0  0  0  0  0  0  0  0
    0.0000    0.0000    0.0000 C   0  0  0  0  0  0  0  0  0  0  0  0
    0.0000    0.0000    0.0000 O   0  0  0  0  0  0  0  0  0  0  0  0
  1  2  1  0
  2  3  1  0
  3  4  2  0
  4  5  1  0
  5  6  2  0
  6  7  1  0
  7  8  2  0
  7  9  1  0
  9 10  1  0
 10 11  1  0
 11 12  1  0
 12 13  1  0
 13 14  1  0
 14 15  1  0
 15 16  1  0
 16 17  1  0
 16 18  1  0
  9 19  1  0
 19 20  1  0
 20 21  1  0
 21 22  1  0
 22 23  1  0
  8  3  1  0
 14  9  1  0
M  END
>  <pIC50>  (449) 
5.1

>  <ChEMBL_ID>  (449) 
CHEMBL256902

>  <document_journal>  (449) 
Bioorg. Med. Chem. Lett.

>  <bao_endpoint>  (449) 
BAO_0000190

>  <potential_duplicate>  (449) 
False

>  <uo_units>  (449) 
UO_0000065

>  <canonical_smiles>  (449) 
COc1cccc(c1)[C@]2(CCCC[C@@H]2CN(C)C)OCCCO

>  <parent_molecule_chembl_id>  (449) 
CHEMBL256902

>  <assay_type>  (449) 
B

>  <src_id>  (449) 
1

>  <ligand_efficiency>  (449) 
{u'le': u'0.3', u'bei': u'15.86', u'sei': u'12.16', u'lle': u'2.47'}

>  <standard_flag>  (449) 
True

>  <molecule_chembl_id>  (449) 
CHEMBL256902

>  <target_organism>  (449) 
Homo sapiens

>  <standard_units>  (449) 
nM

>  <record_id>  (449) 
691769

>  <document_chembl_id>  (449) 
CHEMBL1141623

>  <bao_format>  (449) 
BAO_0000357

>  <data_validity_description>  (449) 
None

>  <activity_id>  (449) 
2103949

>  <standard_type>  (449) 
IC50

>  <target_chembl_id>  (449) 
CHEMBL233

>  <data_validity_comment>  (449) 
None

>  <published_value>  (449) 
8000

>  <document_year>  (449) 
2008

>  <target_pref_name>  (449) 
Mu opioid receptor

>  <assay_chembl_id>  (449) 
CHEMBL948139

>  <standard_relation>  (449) 
=

>  <assay_description>  (449) 
Binding affinity to mu opioid receptor

>  <published_relation>  (449) 
=

>  <standard_value>  (449) 
8000

>  <qudt_units>  (449) 
http://www.openphacts.org/units/Nanomolar

>  <target_tax_id>  (449) 
9606

>  <bao_label>  (449) 
single protein format

>  <published_units>  (449) 
nM

>  <pchembl_value>  (449) 
5.1

>  <published_type>  (449) 
IC50

>  <activity_comment>  (449) 
None

$$$$

     RDKit          

 21 22  0  0  0  0  0  0  0  0999 V2000
    0.0000    0.0000    0.0000 C   0  0  0  0  0  0  0  0  0  0  0  0
    0.0000    0.0000    0.0000 N   0  0  0  0  0  0  0  0  0  0  0  0
    0.0000    0.0000    0.0000 C   0  0  0  0  0  0  0  0  0  0  0  0
    0.0000    0.0000    0.0000 C   0  0  0  0  0  0  0  0  0  0  0  0
    0.0000    0.0000    0.0000 C   0  0  0  0  0  0  0  0  0  0  0  0
    0.0000    0.0000    0.0000 C   0  0  0  0  0  0  0  0  0  0  0  0
    0.0000    0.0000    0.0000 C   0  0  0  0  0  0  0  0  0  0  0  0
    0.0000    0.0000    0.0000 C   0  0  0  0  0  0  0  0  0  0  0  0
    0.0000    0.0000    0.0000 C   0  0  0  0  0  0  0  0  0  0  0  0
    0.0000    0.0000    0.0000 C   0  0  0  0  0  0  0  0  0  0  0  0
    0.0000    0.0000    0.0000 O   0  0  0  0  0  0  0  0  0  0  0  0
    0.0000    0.0000    0.0000 C   0  0  0  0  0  0  0  0  0  0  0  0
    0.0000    0.0000    0.0000 C   0  0  0  0  0  0  0  0  0  0  0  0
    0.0000    0.0000    0.0000 O   0  0  0  0  0  0  0  0  0  0  0  0
    0.0000    0.0000    0.0000 C   0  0  0  0  0  0  0  0  0  0  0  0
    0.0000    0.0000    0.0000 C   0  0  0  0  0  0  0  0  0  0  0  0
    0.0000    0.0000    0.0000 C   0  0  0  0  0  0  0  0  0  0  0  0
    0.0000    0.0000    0.0000 C   0  0  0  0  0  0  0  0  0  0  0  0
    0.0000    0.0000    0.0000 C   0  0  0  0  0  0  0  0  0  0  0  0
    0.0000    0.0000    0.0000 O   0  0  0  0  0  0  0  0  0  0  0  0
    0.0000    0.0000    0.0000 C   0  0  0  0  0  0  0  0  0  0  0  0
  1  2  1  0
  2  3  1  0
  2  4  1  0
  4  5  1  0
  5  6  1  0
  6  7  1  0
  7  8  1  0
  8  9  1  0
  9 10  1  0
 10 11  1  0
 11 12  1  0
 12 13  1  0
 13 14  1  0
 10 15  1  0
 15 16  2  0
 16 17  1  0
 17 18  2  0
 18 19  1  0
 19 20  1  0
 19 21  2  0
 10  5  1  0
 21 15  1  0
M  END
>  <pIC50>  (450) 
6.72

>  <ChEMBL_ID>  (450) 
CHEMBL257264

>  <document_journal>  (450) 
Bioorg. Med. Chem. Lett.

>  <bao_endpoint>  (450) 
BAO_0000190

>  <potential_duplicate>  (450) 
False

>  <uo_units>  (450) 
UO_0000065

>  <canonical_smiles>  (450) 
CN(C)C[C@H]1CCCC[C@]1(OCCO)c2cccc(O)c2

>  <parent_molecule_chembl_id>  (450) 
CHEMBL257264

>  <assay_type>  (450) 
B

>  <src_id>  (450) 
1

>  <ligand_efficiency>  (450) 
{u'le': u'0.44', u'bei': u'22.91', u'sei': u'12.7', u'lle': u'4.38'}

>  <standard_flag>  (450) 
True

>  <molecule_chembl_id>  (450) 
CHEMBL257264

>  <target_organism>  (450) 
Homo sapiens

>  <standard_units>  (450) 
nM

>  <record_id>  (450) 
691768

>  <document_chembl_id>  (450) 
CHEMBL1141623

>  <bao_format>  (450) 
BAO_0000357

>  <data_validity_description>  (450) 
None

>  <activity_id>  (450) 
2103950

>  <standard_type>  (450) 
IC50

>  <target_chembl_id>  (450) 
CHEMBL233

>  <data_validity_comment>  (450) 
None

>  <published_value>  (450) 
190

>  <document_year>  (450) 
2008

>  <target_pref_name>  (450) 
Mu opioid receptor

>  <assay_chembl_id>  (450) 
CHEMBL948139

>  <standard_relation>  (450) 
=

>  <assay_description>  (450) 
Binding affinity to mu opioid receptor

>  <published_relation>  (450) 
=

>  <standard_value>  (450) 
190

>  <qudt_units>  (450) 
http://www.openphacts.org/units/Nanomolar

>  <target_tax_id>  (450) 
9606

>  <bao_label>  (450) 
single protein format

>  <published_units>  (450) 
nM

>  <pchembl_value>  (450) 
6.72

>  <published_type>  (450) 
IC50

>  <activity_comment>  (450) 
None

$$$$

     RDKit          

 22 24  0  0  0  0  0  0  0  0999 V2000
    0.0000    0.0000    0.0000 C   0  0  0  0  0  0  0  0  0  0  0  0
    0.0000    0.0000    0.0000 N   0  0  0  0  0  0  0  0  0  0  0  0
    0.0000    0.0000    0.0000 C   0  0  0  0  0  0  0  0  0  0  0  0
    0.0000    0.0000    0.0000 C   0  0  0  0  0  0  0  0  0  0  0  0
    0.0000    0.0000    0.0000 C   0  0  0  0  0  0  0  0  0  0  0  0
    0.0000    0.0000    0.0000 C   0  0  0  0  0  0  0  0  0  0  0  0
    0.0000    0.0000    0.0000 C   0  0  0  0  0  0  0  0  0  0  0  0
    0.0000    0.0000    0.0000 C   0  0  0  0  0  0  0  0  0  0  0  0
    0.0000    0.0000    0.0000 C   0  0  0  0  0  0  0  0  0  0  0  0
    0.0000    0.0000    0.0000 C   0  0  0  0  0  0  0  0  0  0  0  0
    0.0000    0.0000    0.0000 O   0  0  0  0  0  0  0  0  0  0  0  0
    0.0000    0.0000    0.0000 C   0  0  0  0  0  0  0  0  0  0  0  0
    0.0000    0.0000    0.0000 C   0  0  0  0  0  0  0  0  0  0  0  0
    0.0000    0.0000    0.0000 C   0  0  0  0  0  0  0  0  0  0  0  0
    0.0000    0.0000    0.0000 C   0  0  0  0  0  0  0  0  0  0  0  0
    0.0000    0.0000    0.0000 C   0  0  0  0  0  0  0  0  0  0  0  0
    0.0000    0.0000    0.0000 C   0  0  0  0  0  0  0  0  0  0  0  0
    0.0000    0.0000    0.0000 C   0  0  0  0  0  0  0  0  0  0  0  0
    0.0000    0.0000    0.0000 C   0  0  0  0  0  0  0  0  0  0  0  0
    0.0000    0.0000    0.0000 C   0  0  0  0  0  0  0  0  0  0  0  0
    0.0000    0.0000    0.0000 O   0  0  0  0  0  0  0  0  0  0  0  0
    0.0000    0.0000    0.0000 C   0  0  0  0  0  0  0  0  0  0  0  0
  1  2  1  0
  2  3  1  0
  2  4  1  0
  4  5  1  0
  5  6  1  0
  6  7  1  0
  7  8  1  0
  8  9  1  0
  9 10  1  0
 10 11  1  0
 11 12  1  0
 12 13  1  0
 13 14  1  0
 14 15  1  0
 10 16  1  0
 16 17  2  0
 17 18  1  0
 18 19  2  0
 19 20  1  0
 20 21  1  0
 20 22  2  0
 10  5  1  0
 15 13  1  0
 22 16  1  0
M  END
>  <pIC50>  (451) 
6.89

>  <ChEMBL_ID>  (451) 
CHEMBL255768

>  <document_journal>  (451) 
Bioorg. Med. Chem. Lett.

>  <bao_endpoint>  (451) 
BAO_0000190

>  <potential_duplicate>  (451) 
False

>  <uo_units>  (451) 
UO_0000065

>  <canonical_smiles>  (451) 
CN(C)C[C@H]1CCCC[C@]1(OCC2CC2)c3cccc(O)c3

>  <parent_molecule_chembl_id>  (451) 
CHEMBL255768

>  <assay_type>  (451) 
B

>  <src_id>  (451) 
1

>  <ligand_efficiency>  (451) 
{u'le': u'0.43', u'bei': u'22.69', u'sei': u'21.06', u'lle': u'3.19'}

>  <standard_flag>  (451) 
True

>  <molecule_chembl_id>  (451) 
CHEMBL255768

>  <target_organism>  (451) 
Homo sapiens

>  <standard_units>  (451) 
nM

>  <record_id>  (451) 
691764

>  <document_chembl_id>  (451) 
CHEMBL1141623

>  <bao_format>  (451) 
BAO_0000357

>  <data_validity_description>  (451) 
None

>  <activity_id>  (451) 
2103954

>  <standard_type>  (451) 
IC50

>  <target_chembl_id>  (451) 
CHEMBL233

>  <data_validity_comment>  (451) 
None

>  <published_value>  (451) 
130

>  <document_year>  (451) 
2008

>  <target_pref_name>  (451) 
Mu opioid receptor

>  <assay_chembl_id>  (451) 
CHEMBL948139

>  <standard_relation>  (451) 
=

>  <assay_description>  (451) 
Binding affinity to mu opioid receptor

>  <published_relation>  (451) 
=

>  <standard_value>  (451) 
130

>  <qudt_units>  (451) 
http://www.openphacts.org/units/Nanomolar

>  <target_tax_id>  (451) 
9606

>  <bao_label>  (451) 
single protein format

>  <published_units>  (451) 
nM

>  <pchembl_value>  (451) 
6.89

>  <published_type>  (451) 
IC50

>  <activity_comment>  (451) 
None

$$$$

     RDKit          

 22 23  0  0  0  0  0  0  0  0999 V2000
    0.0000    0.0000    0.0000 C   0  0  0  0  0  0  0  0  0  0  0  0
    0.0000    0.0000    0.0000 C   0  0  0  0  0  0  0  0  0  0  0  0
    0.0000    0.0000    0.0000 C   0  0  0  0  0  0  0  0  0  0  0  0
    0.0000    0.0000    0.0000 C   0  0  0  0  0  0  0  0  0  0  0  0
    0.0000    0.0000    0.0000 O   0  0  0  0  0  0  0  0  0  0  0  0
    0.0000    0.0000    0.0000 C   0  0  0  0  0  0  0  0  0  0  0  0
    0.0000    0.0000    0.0000 C   0  0  0  0  0  0  0  0  0  0  0  0
    0.0000    0.0000    0.0000 C   0  0  0  0  0  0  0  0  0  0  0  0
    0.0000    0.0000    0.0000 C   0  0  0  0  0  0  0  0  0  0  0  0
    0.0000    0.0000    0.0000 C   0  0  0  0  0  0  0  0  0  0  0  0
    0.0000    0.0000    0.0000 C   0  0  0  0  0  0  0  0  0  0  0  0
    0.0000    0.0000    0.0000 C   0  0  0  0  0  0  0  0  0  0  0  0
    0.0000    0.0000    0.0000 N   0  0  0  0  0  0  0  0  0  0  0  0
    0.0000    0.0000    0.0000 C   0  0  0  0  0  0  0  0  0  0  0  0
    0.0000    0.0000    0.0000 C   0  0  0  0  0  0  0  0  0  0  0  0
    0.0000    0.0000    0.0000 C   0  0  0  0  0  0  0  0  0  0  0  0
    0.0000    0.0000    0.0000 C   0  0  0  0  0  0  0  0  0  0  0  0
    0.0000    0.0000    0.0000 C   0  0  0  0  0  0  0  0  0  0  0  0
    0.0000    0.0000    0.0000 C   0  0  0  0  0  0  0  0  0  0  0  0
    0.0000    0.0000    0.0000 C   0  0  0  0  0  0  0  0  0  0  0  0
    0.0000    0.0000    0.0000 O   0  0  0  0  0  0  0  0  0  0  0  0
    0.0000    0.0000    0.0000 C   0  0  0  0  0  0  0  0  0  0  0  0
  1  2  1  0
  2  3  1  0
  3  4  1  0
  4  5  1  0
  5  6  1  0
  6  7  1  0
  7  8  1  0
  8  9  1  0
  9 10  1  0
 10 11  1  0
 11 12  1  0
 12 13  1  0
 13 14  1  0
 13 15  1  0
  6 16  1  0
 16 17  2  0
 17 18  1  0
 18 19  2  0
 19 20  1  0
 20 21  1  0
 20 22  2  0
 11  6  1  0
 22 16  1  0
M  END
>  <pIC50>  (452) 
7.01

>  <ChEMBL_ID>  (452) 
CHEMBL270570

>  <document_journal>  (452) 
Bioorg. Med. Chem. Lett.

>  <bao_endpoint>  (452) 
BAO_0000190

>  <potential_duplicate>  (452) 
False

>  <uo_units>  (452) 
UO_0000065

>  <canonical_smiles>  (452) 
CCCCO[C@@]1(CCCC[C@@H]1CN(C)C)c2cccc(O)c2

>  <parent_molecule_chembl_id>  (452) 
CHEMBL270570

>  <assay_type>  (452) 
B

>  <src_id>  (452) 
1

>  <ligand_efficiency>  (452) 
{u'le': u'0.44', u'bei': u'22.96', u'sei': u'21.45', u'lle': u'2.8'}

>  <standard_flag>  (452) 
True

>  <molecule_chembl_id>  (452) 
CHEMBL270570

>  <target_organism>  (452) 
Homo sapiens

>  <standard_units>  (452) 
nM

>  <record_id>  (452) 
691763

>  <document_chembl_id>  (452) 
CHEMBL1141623

>  <bao_format>  (452) 
BAO_0000357

>  <data_validity_description>  (452) 
None

>  <activity_id>  (452) 
2103955

>  <standard_type>  (452) 
IC50

>  <target_chembl_id>  (452) 
CHEMBL233

>  <data_validity_comment>  (452) 
None

>  <published_value>  (452) 
97

>  <document_year>  (452) 
2008

>  <target_pref_name>  (452) 
Mu opioid receptor

>  <assay_chembl_id>  (452) 
CHEMBL948139

>  <standard_relation>  (452) 
=

>  <assay_description>  (452) 
Binding affinity to mu opioid receptor

>  <published_relation>  (452) 
=

>  <standard_value>  (452) 
97

>  <qudt_units>  (452) 
http://www.openphacts.org/units/Nanomolar

>  <target_tax_id>  (452) 
9606

>  <bao_label>  (452) 
single protein format

>  <published_units>  (452) 
nM

>  <pchembl_value>  (452) 
7.01

>  <published_type>  (452) 
IC50

>  <activity_comment>  (452) 
None

$$$$

     RDKit          

 21 22  0  0  0  0  0  0  0  0999 V2000
    0.0000    0.0000    0.0000 C   0  0  0  0  0  0  0  0  0  0  0  0
    0.0000    0.0000    0.0000 C   0  0  0  0  0  0  0  0  0  0  0  0
    0.0000    0.0000    0.0000 C   0  0  0  0  0  0  0  0  0  0  0  0
    0.0000    0.0000    0.0000 O   0  0  0  0  0  0  0  0  0  0  0  0
    0.0000    0.0000    0.0000 C   0  0  0  0  0  0  0  0  0  0  0  0
    0.0000    0.0000    0.0000 C   0  0  0  0  0  0  0  0  0  0  0  0
    0.0000    0.0000    0.0000 C   0  0  0  0  0  0  0  0  0  0  0  0
    0.0000    0.0000    0.0000 C   0  0  0  0  0  0  0  0  0  0  0  0
    0.0000    0.0000    0.0000 C   0  0  0  0  0  0  0  0  0  0  0  0
    0.0000    0.0000    0.0000 C   0  0  0  0  0  0  0  0  0  0  0  0
    0.0000    0.0000    0.0000 C   0  0  0  0  0  0  0  0  0  0  0  0
    0.0000    0.0000    0.0000 N   0  0  0  0  0  0  0  0  0  0  0  0
    0.0000    0.0000    0.0000 C   0  0  0  0  0  0  0  0  0  0  0  0
    0.0000    0.0000    0.0000 C   0  0  0  0  0  0  0  0  0  0  0  0
    0.0000    0.0000    0.0000 C   0  0  0  0  0  0  0  0  0  0  0  0
    0.0000    0.0000    0.0000 C   0  0  0  0  0  0  0  0  0  0  0  0
    0.0000    0.0000    0.0000 C   0  0  0  0  0  0  0  0  0  0  0  0
    0.0000    0.0000    0.0000 C   0  0  0  0  0  0  0  0  0  0  0  0
    0.0000    0.0000    0.0000 C   0  0  0  0  0  0  0  0  0  0  0  0
    0.0000    0.0000    0.0000 O   0  0  0  0  0  0  0  0  0  0  0  0
    0.0000    0.0000    0.0000 C   0  0  0  0  0  0  0  0  0  0  0  0
  1  2  1  0
  2  3  1  0
  3  4  1  0
  4  5  1  0
  5  6  1  0
  6  7  1  0
  7  8  1  0
  8  9  1  0
  9 10  1  0
 10 11  1  0
 11 12  1  0
 12 13  1  0
 12 14  1  0
  5 15  1  0
 15 16  2  0
 16 17  1  0
 17 18  2  0
 18 19  1  0
 19 20  1  0
 19 21  2  0
 10  5  1  0
 21 15  1  0
M  END
>  <pIC50>  (453) 
6.72

>  <ChEMBL_ID>  (453) 
CHEMBL270786

>  <document_journal>  (453) 
Bioorg. Med. Chem. Lett.

>  <bao_endpoint>  (453) 
BAO_0000190

>  <potential_duplicate>  (453) 
False

>  <uo_units>  (453) 
UO_0000065

>  <canonical_smiles>  (453) 
CCCO[C@@]1(CCCC[C@@H]1CN(C)C)c2cccc(O)c2

>  <parent_molecule_chembl_id>  (453) 
CHEMBL270786

>  <assay_type>  (453) 
B

>  <src_id>  (453) 
1

>  <ligand_efficiency>  (453) 
{u'le': u'0.44', u'bei': u'23.06', u'sei': u'20.55', u'lle': u'2.96'}

>  <standard_flag>  (453) 
True

>  <molecule_chembl_id>  (453) 
CHEMBL270786

>  <target_organism>  (453) 
Homo sapiens

>  <standard_units>  (453) 
nM

>  <record_id>  (453) 
691762

>  <document_chembl_id>  (453) 
CHEMBL1141623

>  <bao_format>  (453) 
BAO_0000357

>  <data_validity_description>  (453) 
None

>  <activity_id>  (453) 
2103956

>  <standard_type>  (453) 
IC50

>  <target_chembl_id>  (453) 
CHEMBL233

>  <data_validity_comment>  (453) 
None

>  <published_value>  (453) 
190

>  <document_year>  (453) 
2008

>  <target_pref_name>  (453) 
Mu opioid receptor

>  <assay_chembl_id>  (453) 
CHEMBL948139

>  <standard_relation>  (453) 
=

>  <assay_description>  (453) 
Binding affinity to mu opioid receptor

>  <published_relation>  (453) 
=

>  <standard_value>  (453) 
190

>  <qudt_units>  (453) 
http://www.openphacts.org/units/Nanomolar

>  <target_tax_id>  (453) 
9606

>  <bao_label>  (453) 
single protein format

>  <published_units>  (453) 
nM

>  <pchembl_value>  (453) 
6.72

>  <published_type>  (453) 
IC50

>  <activity_comment>  (453) 
None

$$$$

     RDKit          

 20 21  0  0  0  0  0  0  0  0999 V2000
    0.0000    0.0000    0.0000 C   0  0  0  0  0  0  0  0  0  0  0  0
    0.0000    0.0000    0.0000 C   0  0  0  0  0  0  0  0  0  0  0  0
    0.0000    0.0000    0.0000 O   0  0  0  0  0  0  0  0  0  0  0  0
    0.0000    0.0000    0.0000 C   0  0  0  0  0  0  0  0  0  0  0  0
    0.0000    0.0000    0.0000 C   0  0  0  0  0  0  0  0  0  0  0  0
    0.0000    0.0000    0.0000 C   0  0  0  0  0  0  0  0  0  0  0  0
    0.0000    0.0000    0.0000 C   0  0  0  0  0  0  0  0  0  0  0  0
    0.0000    0.0000    0.0000 C   0  0  0  0  0  0  0  0  0  0  0  0
    0.0000    0.0000    0.0000 C   0  0  0  0  0  0  0  0  0  0  0  0
    0.0000    0.0000    0.0000 C   0  0  0  0  0  0  0  0  0  0  0  0
    0.0000    0.0000    0.0000 N   0  0  0  0  0  0  0  0  0  0  0  0
    0.0000    0.0000    0.0000 C   0  0  0  0  0  0  0  0  0  0  0  0
    0.0000    0.0000    0.0000 C   0  0  0  0  0  0  0  0  0  0  0  0
    0.0000    0.0000    0.0000 C   0  0  0  0  0  0  0  0  0  0  0  0
    0.0000    0.0000    0.0000 C   0  0  0  0  0  0  0  0  0  0  0  0
    0.0000    0.0000    0.0000 C   0  0  0  0  0  0  0  0  0  0  0  0
    0.0000    0.0000    0.0000 C   0  0  0  0  0  0  0  0  0  0  0  0
    0.0000    0.0000    0.0000 C   0  0  0  0  0  0  0  0  0  0  0  0
    0.0000    0.0000    0.0000 O   0  0  0  0  0  0  0  0  0  0  0  0
    0.0000    0.0000    0.0000 C   0  0  0  0  0  0  0  0  0  0  0  0
  1  2  1  0
  2  3  1  0
  3  4  1  0
  4  5  1  0
  5  6  1  0
  6  7  1  0
  7  8  1  0
  8  9  1  0
  9 10  1  0
 10 11  1  0
 11 12  1  0
 11 13  1  0
  4 14  1  0
 14 15  2  0
 15 16  1  0
 16 17  2  0
 17 18  1  0
 18 19  1  0
 18 20  2  0
  9  4  1  0
 20 14  1  0
M  END
>  <pIC50>  (454) 
6.89

>  <ChEMBL_ID>  (454) 
CHEMBL272063

>  <document_journal>  (454) 
Bioorg. Med. Chem. Lett.

>  <bao_endpoint>  (454) 
BAO_0000190

>  <potential_duplicate>  (454) 
False

>  <uo_units>  (454) 
UO_0000065

>  <canonical_smiles>  (454) 
CCO[C@@]1(CCCC[C@@H]1CN(C)C)c2cccc(O)c2

>  <parent_molecule_chembl_id>  (454) 
CHEMBL272063

>  <assay_type>  (454) 
B

>  <src_id>  (454) 
1

>  <ligand_efficiency>  (454) 
{u'le': u'0.47', u'bei': u'24.82', u'sei': u'21.06', u'lle': u'3.66'}

>  <standard_flag>  (454) 
True

>  <molecule_chembl_id>  (454) 
CHEMBL272063

>  <target_organism>  (454) 
Homo sapiens

>  <standard_units>  (454) 
nM

>  <record_id>  (454) 
691761

>  <document_chembl_id>  (454) 
CHEMBL1141623

>  <bao_format>  (454) 
BAO_0000357

>  <data_validity_description>  (454) 
None

>  <activity_id>  (454) 
2103957

>  <standard_type>  (454) 
IC50

>  <target_chembl_id>  (454) 
CHEMBL233

>  <data_validity_comment>  (454) 
None

>  <published_value>  (454) 
130

>  <document_year>  (454) 
2008

>  <target_pref_name>  (454) 
Mu opioid receptor

>  <assay_chembl_id>  (454) 
CHEMBL948139

>  <standard_relation>  (454) 
=

>  <assay_description>  (454) 
Binding affinity to mu opioid receptor

>  <published_relation>  (454) 
=

>  <standard_value>  (454) 
130

>  <qudt_units>  (454) 
http://www.openphacts.org/units/Nanomolar

>  <target_tax_id>  (454) 
9606

>  <bao_label>  (454) 
single protein format

>  <published_units>  (454) 
nM

>  <pchembl_value>  (454) 
6.89

>  <published_type>  (454) 
IC50

>  <activity_comment>  (454) 
None

$$$$

     RDKit          

 19 20  0  0  0  0  0  0  0  0999 V2000
    0.0000    0.0000    0.0000 C   0  0  0  0  0  0  0  0  0  0  0  0
    0.0000    0.0000    0.0000 O   0  0  0  0  0  0  0  0  0  0  0  0
    0.0000    0.0000    0.0000 C   0  0  0  0  0  0  0  0  0  0  0  0
    0.0000    0.0000    0.0000 C   0  0  0  0  0  0  0  0  0  0  0  0
    0.0000    0.0000    0.0000 C   0  0  0  0  0  0  0  0  0  0  0  0
    0.0000    0.0000    0.0000 C   0  0  0  0  0  0  0  0  0  0  0  0
    0.0000    0.0000    0.0000 C   0  0  0  0  0  0  0  0  0  0  0  0
    0.0000    0.0000    0.0000 C   0  0  0  0  0  0  0  0  0  0  0  0
    0.0000    0.0000    0.0000 C   0  0  0  0  0  0  0  0  0  0  0  0
    0.0000    0.0000    0.0000 N   0  0  0  0  0  0  0  0  0  0  0  0
    0.0000    0.0000    0.0000 C   0  0  0  0  0  0  0  0  0  0  0  0
    0.0000    0.0000    0.0000 C   0  0  0  0  0  0  0  0  0  0  0  0
    0.0000    0.0000    0.0000 C   0  0  0  0  0  0  0  0  0  0  0  0
    0.0000    0.0000    0.0000 C   0  0  0  0  0  0  0  0  0  0  0  0
    0.0000    0.0000    0.0000 C   0  0  0  0  0  0  0  0  0  0  0  0
    0.0000    0.0000    0.0000 C   0  0  0  0  0  0  0  0  0  0  0  0
    0.0000    0.0000    0.0000 C   0  0  0  0  0  0  0  0  0  0  0  0
    0.0000    0.0000    0.0000 O   0  0  0  0  0  0  0  0  0  0  0  0
    0.0000    0.0000    0.0000 C   0  0  0  0  0  0  0  0  0  0  0  0
  1  2  1  0
  2  3  1  0
  3  4  1  0
  4  5  1  0
  5  6  1  0
  6  7  1  0
  7  8  1  0
  8  9  1  0
  9 10  1  0
 10 11  1  0
 10 12  1  0
  3 13  1  0
 13 14  2  0
 14 15  1  0
 15 16  2  0
 16 17  1  0
 17 18  1  0
 17 19  2  0
  8  3  1  0
 19 13  1  0
M  END
>  <pIC50>  (455) 
7.25

>  <ChEMBL_ID>  (455) 
CHEMBL270642

>  <document_journal>  (455) 
Bioorg. Med. Chem. Lett.

>  <bao_endpoint>  (455) 
BAO_0000190

>  <potential_duplicate>  (455) 
False

>  <uo_units>  (455) 
UO_0000065

>  <canonical_smiles>  (455) 
CO[C@@]1(CCCC[C@@H]1CN(C)C)c2cccc(O)c2

>  <parent_molecule_chembl_id>  (455) 
CHEMBL270642

>  <assay_type>  (455) 
B

>  <src_id>  (455) 
1

>  <ligand_efficiency>  (455) 
{u'le': u'0.52', u'bei': u'27.53', u'sei': u'22.18', u'lle': u'4.37'}

>  <standard_flag>  (455) 
True

>  <molecule_chembl_id>  (455) 
CHEMBL270642

>  <target_organism>  (455) 
Homo sapiens

>  <standard_units>  (455) 
nM

>  <record_id>  (455) 
691760

>  <document_chembl_id>  (455) 
CHEMBL1141623

>  <bao_format>  (455) 
BAO_0000357

>  <data_validity_description>  (455) 
None

>  <activity_id>  (455) 
2103958

>  <standard_type>  (455) 
IC50

>  <target_chembl_id>  (455) 
CHEMBL233

>  <data_validity_comment>  (455) 
None

>  <published_value>  (455) 
56

>  <document_year>  (455) 
2008

>  <target_pref_name>  (455) 
Mu opioid receptor

>  <assay_chembl_id>  (455) 
CHEMBL948139

>  <standard_relation>  (455) 
=

>  <assay_description>  (455) 
Binding affinity to mu opioid receptor

>  <published_relation>  (455) 
=

>  <standard_value>  (455) 
56

>  <qudt_units>  (455) 
http://www.openphacts.org/units/Nanomolar

>  <target_tax_id>  (455) 
9606

>  <bao_label>  (455) 
single protein format

>  <published_units>  (455) 
nM

>  <pchembl_value>  (455) 
7.25

>  <published_type>  (455) 
IC50

>  <activity_comment>  (455) 
None

$$$$

     RDKit          

 23 25  0  0  0  0  0  0  0  0999 V2000
    0.0000    0.0000    0.0000 C   0  0  0  0  0  0  0  0  0  0  0  0
    0.0000    0.0000    0.0000 O   0  0  0  0  0  0  0  0  0  0  0  0
    0.0000    0.0000    0.0000 C   0  0  0  0  0  0  0  0  0  0  0  0
    0.0000    0.0000    0.0000 C   0  0  0  0  0  0  0  0  0  0  0  0
    0.0000    0.0000    0.0000 C   0  0  0  0  0  0  0  0  0  0  0  0
    0.0000    0.0000    0.0000 C   0  0  0  0  0  0  0  0  0  0  0  0
    0.0000    0.0000    0.0000 C   0  0  0  0  0  0  0  0  0  0  0  0
    0.0000    0.0000    0.0000 C   0  0  0  0  0  0  0  0  0  0  0  0
    0.0000    0.0000    0.0000 C   0  0  0  0  0  0  0  0  0  0  0  0
    0.0000    0.0000    0.0000 C   0  0  0  0  0  0  0  0  0  0  0  0
    0.0000    0.0000    0.0000 C   0  0  0  0  0  0  0  0  0  0  0  0
    0.0000    0.0000    0.0000 C   0  0  0  0  0  0  0  0  0  0  0  0
    0.0000    0.0000    0.0000 C   0  0  0  0  0  0  0  0  0  0  0  0
    0.0000    0.0000    0.0000 C   0  0  0  0  0  0  0  0  0  0  0  0
    0.0000    0.0000    0.0000 C   0  0  0  0  0  0  0  0  0  0  0  0
    0.0000    0.0000    0.0000 N   0  0  0  0  0  0  0  0  0  0  0  0
    0.0000    0.0000    0.0000 C   0  0  0  0  0  0  0  0  0  0  0  0
    0.0000    0.0000    0.0000 C   0  0  0  0  0  0  0  0  0  0  0  0
    0.0000    0.0000    0.0000 O   0  0  0  0  0  0  0  0  0  0  0  0
    0.0000    0.0000    0.0000 C   0  0  0  0  0  0  0  0  0  0  0  0
    0.0000    0.0000    0.0000 C   0  0  0  0  0  0  0  0  0  0  0  0
    0.0000    0.0000    0.0000 C   0  0  0  0  0  0  0  0  0  0  0  0
    0.0000    0.0000    0.0000 C   0  0  0  0  0  0  0  0  0  0  0  0
  1  2  1  0
  2  3  1  0
  3  4  2  0
  4  5  1  0
  5  6  2  0
  6  7  1  0
  7  8  2  0
  7  9  1  0
  9 10  1  0
 10 11  1  0
 11 12  1  0
 12 13  1  0
 13 14  1  0
 14 15  1  0
 15 16  1  0
 16 17  1  0
 16 18  1  0
  9 19  1  0
 19 20  1  0
 20 21  1  0
 21 22  1  0
 22 23  1  0
  8  3  1  0
 14  9  1  0
 23 21  1  0
M  END
>  <pIC50>  (456) 
5.12

>  <ChEMBL_ID>  (456) 
CHEMBL404197

>  <document_journal>  (456) 
Bioorg. Med. Chem. Lett.

>  <bao_endpoint>  (456) 
BAO_0000190

>  <potential_duplicate>  (456) 
False

>  <uo_units>  (456) 
UO_0000065

>  <canonical_smiles>  (456) 
COc1cccc(c1)[C@]2(CCCC[C@@H]2CN(C)C)OCC3CC3

>  <parent_molecule_chembl_id>  (456) 
CHEMBL404197

>  <assay_type>  (456) 
B

>  <src_id>  (456) 
1

>  <ligand_efficiency>  (456) 
{u'le': u'0.3', u'bei': u'16.11', u'sei': u'23.57', u'lle': u'1.19'}

>  <standard_flag>  (456) 
True

>  <molecule_chembl_id>  (456) 
CHEMBL404197

>  <target_organism>  (456) 
Homo sapiens

>  <standard_units>  (456) 
nM

>  <record_id>  (456) 
691759

>  <document_chembl_id>  (456) 
CHEMBL1141623

>  <bao_format>  (456) 
BAO_0000357

>  <data_validity_description>  (456) 
None

>  <activity_id>  (456) 
2103959

>  <standard_type>  (456) 
IC50

>  <target_chembl_id>  (456) 
CHEMBL233

>  <data_validity_comment>  (456) 
None

>  <published_value>  (456) 
7670

>  <document_year>  (456) 
2008

>  <target_pref_name>  (456) 
Mu opioid receptor

>  <assay_chembl_id>  (456) 
CHEMBL948139

>  <standard_relation>  (456) 
=

>  <assay_description>  (456) 
Binding affinity to mu opioid receptor

>  <published_relation>  (456) 
=

>  <standard_value>  (456) 
7670

>  <qudt_units>  (456) 
http://www.openphacts.org/units/Nanomolar

>  <target_tax_id>  (456) 
9606

>  <bao_label>  (456) 
single protein format

>  <published_units>  (456) 
nM

>  <pchembl_value>  (456) 
5.12

>  <published_type>  (456) 
IC50

>  <activity_comment>  (456) 
None

$$$$

     RDKit          

 23 24  0  0  0  0  0  0  0  0999 V2000
    0.0000    0.0000    0.0000 C   0  0  0  0  0  0  0  0  0  0  0  0
    0.0000    0.0000    0.0000 C   0  0  0  0  0  0  0  0  0  0  0  0
    0.0000    0.0000    0.0000 C   0  0  0  0  0  0  0  0  0  0  0  0
    0.0000    0.0000    0.0000 C   0  0  0  0  0  0  0  0  0  0  0  0
    0.0000    0.0000    0.0000 O   0  0  0  0  0  0  0  0  0  0  0  0
    0.0000    0.0000    0.0000 C   0  0  0  0  0  0  0  0  0  0  0  0
    0.0000    0.0000    0.0000 C   0  0  0  0  0  0  0  0  0  0  0  0
    0.0000    0.0000    0.0000 C   0  0  0  0  0  0  0  0  0  0  0  0
    0.0000    0.0000    0.0000 C   0  0  0  0  0  0  0  0  0  0  0  0
    0.0000    0.0000    0.0000 C   0  0  0  0  0  0  0  0  0  0  0  0
    0.0000    0.0000    0.0000 C   0  0  0  0  0  0  0  0  0  0  0  0
    0.0000    0.0000    0.0000 C   0  0  0  0  0  0  0  0  0  0  0  0
    0.0000    0.0000    0.0000 N   0  0  0  0  0  0  0  0  0  0  0  0
    0.0000    0.0000    0.0000 C   0  0  0  0  0  0  0  0  0  0  0  0
    0.0000    0.0000    0.0000 C   0  0  0  0  0  0  0  0  0  0  0  0
    0.0000    0.0000    0.0000 C   0  0  0  0  0  0  0  0  0  0  0  0
    0.0000    0.0000    0.0000 C   0  0  0  0  0  0  0  0  0  0  0  0
    0.0000    0.0000    0.0000 C   0  0  0  0  0  0  0  0  0  0  0  0
    0.0000    0.0000    0.0000 C   0  0  0  0  0  0  0  0  0  0  0  0
    0.0000    0.0000    0.0000 C   0  0  0  0  0  0  0  0  0  0  0  0
    0.0000    0.0000    0.0000 O   0  0  0  0  0  0  0  0  0  0  0  0
    0.0000    0.0000    0.0000 C   0  0  0  0  0  0  0  0  0  0  0  0
    0.0000    0.0000    0.0000 C   0  0  0  0  0  0  0  0  0  0  0  0
  1  2  1  0
  2  3  1  0
  3  4  1  0
  4  5  1  0
  5  6  1  0
  6  7  1  0
  7  8  1  0
  8  9  1  0
  9 10  1  0
 10 11  1  0
 11 12  1  0
 12 13  1  0
 13 14  1  0
 13 15  1  0
  6 16  1  0
 16 17  2  0
 17 18  1  0
 18 19  2  0
 19 20  1  0
 20 21  1  0
 21 22  1  0
 20 23  2  0
 11  6  1  0
 23 16  1  0
M  END
>  <pIC50>  (457) 
5.19

>  <ChEMBL_ID>  (457) 
CHEMBL258140

>  <document_journal>  (457) 
Bioorg. Med. Chem. Lett.

>  <bao_endpoint>  (457) 
BAO_0000190

>  <potential_duplicate>  (457) 
False

>  <uo_units>  (457) 
UO_0000065

>  <canonical_smiles>  (457) 
CCCCO[C@@]1(CCCC[C@@H]1CN(C)C)c2cccc(OC)c2

>  <parent_molecule_chembl_id>  (457) 
CHEMBL258140

>  <assay_type>  (457) 
B

>  <src_id>  (457) 
1

>  <ligand_efficiency>  (457) 
{u'le': u'0.31', u'bei': u'16.24', u'sei': u'23.91', u'lle': u'0.75'}

>  <standard_flag>  (457) 
True

>  <molecule_chembl_id>  (457) 
CHEMBL258140

>  <target_organism>  (457) 
Homo sapiens

>  <standard_units>  (457) 
nM

>  <record_id>  (457) 
691758

>  <document_chembl_id>  (457) 
CHEMBL1141623

>  <bao_format>  (457) 
BAO_0000357

>  <data_validity_description>  (457) 
None

>  <activity_id>  (457) 
2103960

>  <standard_type>  (457) 
IC50

>  <target_chembl_id>  (457) 
CHEMBL233

>  <data_validity_comment>  (457) 
None

>  <published_value>  (457) 
6490

>  <document_year>  (457) 
2008

>  <target_pref_name>  (457) 
Mu opioid receptor

>  <assay_chembl_id>  (457) 
CHEMBL948139

>  <standard_relation>  (457) 
=

>  <assay_description>  (457) 
Binding affinity to mu opioid receptor

>  <published_relation>  (457) 
=

>  <standard_value>  (457) 
6490

>  <qudt_units>  (457) 
http://www.openphacts.org/units/Nanomolar

>  <target_tax_id>  (457) 
9606

>  <bao_label>  (457) 
single protein format

>  <published_units>  (457) 
nM

>  <pchembl_value>  (457) 
5.19

>  <published_type>  (457) 
IC50

>  <activity_comment>  (457) 
None

$$$$

     RDKit          

 22 23  0  0  0  0  0  0  0  0999 V2000
    0.0000    0.0000    0.0000 C   0  0  0  0  0  0  0  0  0  0  0  0
    0.0000    0.0000    0.0000 C   0  0  0  0  0  0  0  0  0  0  0  0
    0.0000    0.0000    0.0000 C   0  0  0  0  0  0  0  0  0  0  0  0
    0.0000    0.0000    0.0000 O   0  0  0  0  0  0  0  0  0  0  0  0
    0.0000    0.0000    0.0000 C   0  0  0  0  0  0  0  0  0  0  0  0
    0.0000    0.0000    0.0000 C   0  0  0  0  0  0  0  0  0  0  0  0
    0.0000    0.0000    0.0000 C   0  0  0  0  0  0  0  0  0  0  0  0
    0.0000    0.0000    0.0000 C   0  0  0  0  0  0  0  0  0  0  0  0
    0.0000    0.0000    0.0000 C   0  0  0  0  0  0  0  0  0  0  0  0
    0.0000    0.0000    0.0000 C   0  0  0  0  0  0  0  0  0  0  0  0
    0.0000    0.0000    0.0000 C   0  0  0  0  0  0  0  0  0  0  0  0
    0.0000    0.0000    0.0000 N   0  0  0  0  0  0  0  0  0  0  0  0
    0.0000    0.0000    0.0000 C   0  0  0  0  0  0  0  0  0  0  0  0
    0.0000    0.0000    0.0000 C   0  0  0  0  0  0  0  0  0  0  0  0
    0.0000    0.0000    0.0000 C   0  0  0  0  0  0  0  0  0  0  0  0
    0.0000    0.0000    0.0000 C   0  0  0  0  0  0  0  0  0  0  0  0
    0.0000    0.0000    0.0000 C   0  0  0  0  0  0  0  0  0  0  0  0
    0.0000    0.0000    0.0000 C   0  0  0  0  0  0  0  0  0  0  0  0
    0.0000    0.0000    0.0000 C   0  0  0  0  0  0  0  0  0  0  0  0
    0.0000    0.0000    0.0000 O   0  0  0  0  0  0  0  0  0  0  0  0
    0.0000    0.0000    0.0000 C   0  0  0  0  0  0  0  0  0  0  0  0
    0.0000    0.0000    0.0000 C   0  0  0  0  0  0  0  0  0  0  0  0
  1  2  1  0
  2  3  1  0
  3  4  1  0
  4  5  1  0
  5  6  1  0
  6  7  1  0
  7  8  1  0
  8  9  1  0
  9 10  1  0
 10 11  1  0
 11 12  1  0
 12 13  1  0
 12 14  1  0
  5 15  1  0
 15 16  2  0
 16 17  1  0
 17 18  2  0
 18 19  1  0
 19 20  1  0
 20 21  1  0
 19 22  2  0
 10  5  1  0
 22 15  1  0
M  END
>  <pIC50>  (458) 
5.1

>  <ChEMBL_ID>  (458) 
CHEMBL256227

>  <document_journal>  (458) 
Bioorg. Med. Chem. Lett.

>  <bao_endpoint>  (458) 
BAO_0000190

>  <potential_duplicate>  (458) 
False

>  <uo_units>  (458) 
UO_0000065

>  <canonical_smiles>  (458) 
CCCO[C@@]1(CCCC[C@@H]1CN(C)C)c2cccc(OC)c2

>  <parent_molecule_chembl_id>  (458) 
CHEMBL256227

>  <assay_type>  (458) 
B

>  <src_id>  (458) 
1

>  <ligand_efficiency>  (458) 
{u'le': u'0.32', u'bei': u'16.7', u'sei': u'23.51', u'lle': u'1.12'}

>  <standard_flag>  (458) 
True

>  <molecule_chembl_id>  (458) 
CHEMBL256227

>  <target_organism>  (458) 
Homo sapiens

>  <standard_units>  (458) 
nM

>  <record_id>  (458) 
691757

>  <document_chembl_id>  (458) 
CHEMBL1141623

>  <bao_format>  (458) 
BAO_0000357

>  <data_validity_description>  (458) 
None

>  <activity_id>  (458) 
2103961

>  <standard_type>  (458) 
IC50

>  <target_chembl_id>  (458) 
CHEMBL233

>  <data_validity_comment>  (458) 
None

>  <published_value>  (458) 
7900

>  <document_year>  (458) 
2008

>  <target_pref_name>  (458) 
Mu opioid receptor

>  <assay_chembl_id>  (458) 
CHEMBL948139

>  <standard_relation>  (458) 
=

>  <assay_description>  (458) 
Binding affinity to mu opioid receptor

>  <published_relation>  (458) 
=

>  <standard_value>  (458) 
7900

>  <qudt_units>  (458) 
http://www.openphacts.org/units/Nanomolar

>  <target_tax_id>  (458) 
9606

>  <bao_label>  (458) 
single protein format

>  <published_units>  (458) 
nM

>  <pchembl_value>  (458) 
5.1

>  <published_type>  (458) 
IC50

>  <activity_comment>  (458) 
None

$$$$

     RDKit          

 20 21  0  0  0  0  0  0  0  0999 V2000
    0.0000    0.0000    0.0000 C   0  0  0  0  0  0  0  0  0  0  0  0
    0.0000    0.0000    0.0000 O   0  0  0  0  0  0  0  0  0  0  0  0
    0.0000    0.0000    0.0000 C   0  0  0  0  0  0  0  0  0  0  0  0
    0.0000    0.0000    0.0000 C   0  0  0  0  0  0  0  0  0  0  0  0
    0.0000    0.0000    0.0000 C   0  0  0  0  0  0  0  0  0  0  0  0
    0.0000    0.0000    0.0000 C   0  0  0  0  0  0  0  0  0  0  0  0
    0.0000    0.0000    0.0000 C   0  0  0  0  0  0  0  0  0  0  0  0
    0.0000    0.0000    0.0000 C   0  0  0  0  0  0  0  0  0  0  0  0
    0.0000    0.0000    0.0000 C   0  0  0  0  0  0  0  0  0  0  0  0
    0.0000    0.0000    0.0000 C   0  0  0  0  0  0  0  0  0  0  0  0
    0.0000    0.0000    0.0000 C   0  0  0  0  0  0  0  0  0  0  0  0
    0.0000    0.0000    0.0000 C   0  0  0  0  0  0  0  0  0  0  0  0
    0.0000    0.0000    0.0000 C   0  0  0  0  0  0  0  0  0  0  0  0
    0.0000    0.0000    0.0000 C   0  0  0  0  0  0  0  0  0  0  0  0
    0.0000    0.0000    0.0000 C   0  0  0  0  0  0  0  0  0  0  0  0
    0.0000    0.0000    0.0000 N   0  0  0  0  0  0  0  0  0  0  0  0
    0.0000    0.0000    0.0000 C   0  0  0  0  0  0  0  0  0  0  0  0
    0.0000    0.0000    0.0000 C   0  0  0  0  0  0  0  0  0  0  0  0
    0.0000    0.0000    0.0000 O   0  0  0  0  0  0  0  0  0  0  0  0
    0.0000    0.0000    0.0000 C   0  0  0  0  0  0  0  0  0  0  0  0
  1  2  1  0
  2  3  1  0
  3  4  2  0
  4  5  1  0
  5  6  2  0
  6  7  1  0
  7  8  2  0
  7  9  1  0
  9 10  1  0
 10 11  1  0
 11 12  1  0
 12 13  1  0
 13 14  1  0
 14 15  1  0
 15 16  1  0
 16 17  1  0
 16 18  1  0
  9 19  1  0
 19 20  1  0
  8  3  1  0
 14  9  1  0
M  END
>  <pIC50>  (459) 
5.1

>  <ChEMBL_ID>  (459) 
CHEMBL272533

>  <document_journal>  (459) 
Bioorg. Med. Chem. Lett.

>  <bao_endpoint>  (459) 
BAO_0000190

>  <potential_duplicate>  (459) 
False

>  <uo_units>  (459) 
UO_0000065

>  <canonical_smiles>  (459) 
COc1cccc(c1)[C@]2(CCCC[C@@H]2CN(C)C)OC

>  <parent_molecule_chembl_id>  (459) 
CHEMBL272533

>  <assay_type>  (459) 
B

>  <src_id>  (459) 
1

>  <ligand_efficiency>  (459) 
{u'le': u'0.35', u'bei': u'18.4', u'sei': u'23.52', u'lle': u'1.99'}

>  <standard_flag>  (459) 
True

>  <molecule_chembl_id>  (459) 
CHEMBL272533

>  <target_organism>  (459) 
Homo sapiens

>  <standard_units>  (459) 
nM

>  <record_id>  (459) 
691755

>  <document_chembl_id>  (459) 
CHEMBL1141623

>  <bao_format>  (459) 
BAO_0000357

>  <data_validity_description>  (459) 
None

>  <activity_id>  (459) 
2103963

>  <standard_type>  (459) 
IC50

>  <target_chembl_id>  (459) 
CHEMBL233

>  <data_validity_comment>  (459) 
None

>  <published_value>  (459) 
7870

>  <document_year>  (459) 
2008

>  <target_pref_name>  (459) 
Mu opioid receptor

>  <assay_chembl_id>  (459) 
CHEMBL948139

>  <standard_relation>  (459) 
=

>  <assay_description>  (459) 
Binding affinity to mu opioid receptor

>  <published_relation>  (459) 
=

>  <standard_value>  (459) 
7870

>  <qudt_units>  (459) 
http://www.openphacts.org/units/Nanomolar

>  <target_tax_id>  (459) 
9606

>  <bao_label>  (459) 
single protein format

>  <published_units>  (459) 
nM

>  <pchembl_value>  (459) 
5.1

>  <published_type>  (459) 
IC50

>  <activity_comment>  (459) 
None

$$$$

     RDKit          

 36 38  0  0  0  0  0  0  0  0999 V2000
    0.0000    0.0000    0.0000 C   0  0  0  0  0  0  0  0  0  0  0  0
    0.0000    0.0000    0.0000 C   0  0  0  0  0  0  0  0  0  0  0  0
    0.0000    0.0000    0.0000 C   0  0  0  0  0  0  0  0  0  0  0  0
    0.0000    0.0000    0.0000 N   0  0  0  0  0  0  0  0  0  0  0  0
    0.0000    0.0000    0.0000 C   0  0  0  0  0  0  0  0  0  0  0  0
    0.0000    0.0000    0.0000 C   0  0  0  0  0  0  0  0  0  0  0  0
    0.0000    0.0000    0.0000 C   0  0  0  0  0  0  0  0  0  0  0  0
    0.0000    0.0000    0.0000 C   0  0  0  0  0  0  0  0  0  0  0  0
    0.0000    0.0000    0.0000 C   0  0  0  0  0  0  0  0  0  0  0  0
    0.0000    0.0000    0.0000 C   0  0  0  0  0  0  0  0  0  0  0  0
    0.0000    0.0000    0.0000 C   0  0  0  0  0  0  0  0  0  0  0  0
    0.0000    0.0000    0.0000 C   0  0  0  0  0  0  0  0  0  0  0  0
    0.0000    0.0000    0.0000 C   0  0  0  0  0  0  0  0  0  0  0  0
    0.0000    0.0000    0.0000 C   0  0  0  0  0  0  0  0  0  0  0  0
    0.0000    0.0000    0.0000 O   0  0  0  0  0  0  0  0  0  0  0  0
    0.0000    0.0000    0.0000 N   0  0  0  0  0  0  0  0  0  0  0  0
    0.0000    0.0000    0.0000 C   0  0  0  0  0  0  0  0  0  0  0  0
    0.0000    0.0000    0.0000 C   0  0  0  0  0  0  0  0  0  0  0  0
    0.0000    0.0000    0.0000 C   0  0  0  0  0  0  0  0  0  0  0  0
    0.0000    0.0000    0.0000 C   0  0  0  0  0  0  0  0  0  0  0  0
    0.0000    0.0000    0.0000 C   0  0  0  0  0  0  0  0  0  0  0  0
    0.0000    0.0000    0.0000 N   0  0  0  0  0  0  0  0  0  0  0  0
    0.0000    0.0000    0.0000 C   0  0  0  0  0  0  0  0  0  0  0  0
    0.0000    0.0000    0.0000 O   0  0  0  0  0  0  0  0  0  0  0  0
    0.0000    0.0000    0.0000 O   0  0  0  0  0  0  0  0  0  0  0  0
    0.0000    0.0000    0.0000 C   0  0  0  0  0  0  0  0  0  0  0  0
    0.0000    0.0000    0.0000 C   0  0  0  0  0  0  0  0  0  0  0  0
    0.0000    0.0000    0.0000 C   0  0  0  0  0  0  0  0  0  0  0  0
    0.0000    0.0000    0.0000 C   0  0  0  0  0  0  0  0  0  0  0  0
    0.0000    0.0000    0.0000 C   0  0  0  0  0  0  0  0  0  0  0  0
    0.0000    0.0000    0.0000 C   0  0  0  0  0  0  0  0  0  0  0  0
    0.0000    0.0000    0.0000 C   0  0  0  0  0  0  0  0  0  0  0  0
    0.0000    0.0000    0.0000 C   0  0  0  0  0  0  0  0  0  0  0  0
    0.0000    0.0000    0.0000 C   0  0  0  0  0  0  0  0  0  0  0  0
    0.0000    0.0000    0.0000 O   0  0  0  0  0  0  0  0  0  0  0  0
    0.0000    0.0000    0.0000 C   0  0  0  0  0  0  0  0  0  0  0  0
  1  2  1  0
  2  3  1  0
  3  4  1  0
  4  5  1  0
  5  6  1  0
  6  7  1  0
  7  8  1  0
  8  9  2  0
  9 10  1  0
 10 11  2  0
 11 12  1  0
 12 13  2  0
  6 14  1  0
 14 15  2  0
 14 16  1  0
 16 17  1  0
 17 18  1  0
 18 19  1  0
 19 20  1  0
 20 21  1  0
 21 22  1  0
 17 23  1  0
 23 24  2  0
 23 25  1  0
  4 26  1  0
 26 27  1  0
 27 28  1  0
 28 29  1  0
 28 30  1  0
 30 31  2  0
 31 32  1  0
 32 33  2  0
 33 34  1  0
 34 35  1  0
 34 36  2  0
 28  2  1  0
 13  8  1  0
 36 30  1  0
M  END
>  <pIC50>  (460) 
8.92

>  <ChEMBL_ID>  (460) 
CHEMBL401615

>  <document_journal>  (460) 
Bioorg. Med. Chem. Lett.

>  <bao_endpoint>  (460) 
BAO_0000190

>  <potential_duplicate>  (460) 
False

>  <uo_units>  (460) 
UO_0000065

>  <canonical_smiles>  (460) 
C[C@H]1CN(C[C@H](Cc2ccccc2)C(=O)N[C@@H](CCCCN)C(=O)O)CC[C@@]1(C)c3cccc(O)c3

>  <parent_molecule_chembl_id>  (460) 
CHEMBL401615

>  <assay_type>  (460) 
F

>  <src_id>  (460) 
1

>  <ligand_efficiency>  (460) 
None

>  <standard_flag>  (460) 
True

>  <molecule_chembl_id>  (460) 
CHEMBL401615

>  <target_organism>  (460) 
Homo sapiens

>  <standard_units>  (460) 
nM

>  <record_id>  (460) 
705482

>  <document_chembl_id>  (460) 
CHEMBL1144033

>  <bao_format>  (460) 
BAO_0000019

>  <data_validity_description>  (460) 
None

>  <activity_id>  (460) 
2119443

>  <standard_type>  (460) 
IC50

>  <target_chembl_id>  (460) 
CHEMBL233

>  <data_validity_comment>  (460) 
None

>  <published_value>  (460) 
1.2

>  <document_year>  (460) 
2008

>  <target_pref_name>  (460) 
Mu opioid receptor

>  <assay_chembl_id>  (460) 
CHEMBL933966

>  <standard_relation>  (460) 
=

>  <assay_description>  (460) 
Antagonist activity at human cloned mu opioid receptor assessed as inhibition of loperamide-stimulated [35S]GTP-gamma-S binding

>  <published_relation>  (460) 
=

>  <standard_value>  (460) 
1.2

>  <qudt_units>  (460) 
http://www.openphacts.org/units/Nanomolar

>  <target_tax_id>  (460) 
9606

>  <bao_label>  (460) 
assay format

>  <published_units>  (460) 
nM

>  <pchembl_value>  (460) 
8.92

>  <published_type>  (460) 
IC50

>  <activity_comment>  (460) 
None

$$$$

     RDKit          

 35 37  0  0  0  0  0  0  0  0999 V2000
    0.0000    0.0000    0.0000 C   0  0  0  0  0  0  0  0  0  0  0  0
    0.0000    0.0000    0.0000 C   0  0  0  0  0  0  0  0  0  0  0  0
    0.0000    0.0000    0.0000 C   0  0  0  0  0  0  0  0  0  0  0  0
    0.0000    0.0000    0.0000 N   0  0  0  0  0  0  0  0  0  0  0  0
    0.0000    0.0000    0.0000 C   0  0  0  0  0  0  0  0  0  0  0  0
    0.0000    0.0000    0.0000 C   0  0  0  0  0  0  0  0  0  0  0  0
    0.0000    0.0000    0.0000 C   0  0  0  0  0  0  0  0  0  0  0  0
    0.0000    0.0000    0.0000 C   0  0  0  0  0  0  0  0  0  0  0  0
    0.0000    0.0000    0.0000 C   0  0  0  0  0  0  0  0  0  0  0  0
    0.0000    0.0000    0.0000 C   0  0  0  0  0  0  0  0  0  0  0  0
    0.0000    0.0000    0.0000 C   0  0  0  0  0  0  0  0  0  0  0  0
    0.0000    0.0000    0.0000 C   0  0  0  0  0  0  0  0  0  0  0  0
    0.0000    0.0000    0.0000 C   0  0  0  0  0  0  0  0  0  0  0  0
    0.0000    0.0000    0.0000 C   0  0  0  0  0  0  0  0  0  0  0  0
    0.0000    0.0000    0.0000 O   0  0  0  0  0  0  0  0  0  0  0  0
    0.0000    0.0000    0.0000 N   0  0  0  0  0  0  0  0  0  0  0  0
    0.0000    0.0000    0.0000 C   0  0  0  0  0  0  0  0  0  0  0  0
    0.0000    0.0000    0.0000 C   0  0  0  0  0  0  0  0  0  0  0  0
    0.0000    0.0000    0.0000 C   0  0  0  0  0  0  0  0  0  0  0  0
    0.0000    0.0000    0.0000 C   0  0  0  0  0  0  0  0  0  0  0  0
    0.0000    0.0000    0.0000 N   0  0  0  0  0  0  0  0  0  0  0  0
    0.0000    0.0000    0.0000 C   0  0  0  0  0  0  0  0  0  0  0  0
    0.0000    0.0000    0.0000 O   0  0  0  0  0  0  0  0  0  0  0  0
    0.0000    0.0000    0.0000 O   0  0  0  0  0  0  0  0  0  0  0  0
    0.0000    0.0000    0.0000 C   0  0  0  0  0  0  0  0  0  0  0  0
    0.0000    0.0000    0.0000 C   0  0  0  0  0  0  0  0  0  0  0  0
    0.0000    0.0000    0.0000 C   0  0  0  0  0  0  0  0  0  0  0  0
    0.0000    0.0000    0.0000 C   0  0  0  0  0  0  0  0  0  0  0  0
    0.0000    0.0000    0.0000 C   0  0  0  0  0  0  0  0  0  0  0  0
    0.0000    0.0000    0.0000 C   0  0  0  0  0  0  0  0  0  0  0  0
    0.0000    0.0000    0.0000 C   0  0  0  0  0  0  0  0  0  0  0  0
    0.0000    0.0000    0.0000 C   0  0  0  0  0  0  0  0  0  0  0  0
    0.0000    0.0000    0.0000 C   0  0  0  0  0  0  0  0  0  0  0  0
    0.0000    0.0000    0.0000 O   0  0  0  0  0  0  0  0  0  0  0  0
    0.0000    0.0000    0.0000 C   0  0  0  0  0  0  0  0  0  0  0  0
  1  2  1  0
  2  3  1  0
  3  4  1  0
  4  5  1  0
  5  6  1  0
  6  7  1  0
  7  8  1  0
  8  9  2  0
  9 10  1  0
 10 11  2  0
 11 12  1  0
 12 13  2  0
  6 14  1  0
 14 15  2  0
 14 16  1  0
 16 17  1  0
 17 18  1  0
 18 19  1  0
 19 20  1  0
 20 21  1  0
 17 22  1  0
 22 23  2  0
 22 24  1  0
  4 25  1  0
 25 26  1  0
 26 27  1  0
 27 28  1  0
 27 29  1  0
 29 30  2  0
 30 31  1  0
 31 32  2  0
 32 33  1  0
 33 34  1  0
 33 35  2  0
 27  2  1  0
 13  8  1  0
 35 29  1  0
M  END
>  <pIC50>  (461) 
8.85

>  <ChEMBL_ID>  (461) 
CHEMBL437983

>  <document_journal>  (461) 
Bioorg. Med. Chem. Lett.

>  <bao_endpoint>  (461) 
BAO_0000190

>  <potential_duplicate>  (461) 
False

>  <uo_units>  (461) 
UO_0000065

>  <canonical_smiles>  (461) 
C[C@H]1CN(C[C@H](Cc2ccccc2)C(=O)N[C@@H](CCCN)C(=O)O)CC[C@@]1(C)c3cccc(O)c3

>  <parent_molecule_chembl_id>  (461) 
CHEMBL437983

>  <assay_type>  (461) 
F

>  <src_id>  (461) 
1

>  <ligand_efficiency>  (461) 
None

>  <standard_flag>  (461) 
True

>  <molecule_chembl_id>  (461) 
CHEMBL437983

>  <target_organism>  (461) 
Homo sapiens

>  <standard_units>  (461) 
nM

>  <record_id>  (461) 
705481

>  <document_chembl_id>  (461) 
CHEMBL1144033

>  <bao_format>  (461) 
BAO_0000019

>  <data_validity_description>  (461) 
None

>  <activity_id>  (461) 
2119444

>  <standard_type>  (461) 
IC50

>  <target_chembl_id>  (461) 
CHEMBL233

>  <data_validity_comment>  (461) 
None

>  <published_value>  (461) 
1.4

>  <document_year>  (461) 
2008

>  <target_pref_name>  (461) 
Mu opioid receptor

>  <assay_chembl_id>  (461) 
CHEMBL933966

>  <standard_relation>  (461) 
=

>  <assay_description>  (461) 
Antagonist activity at human cloned mu opioid receptor assessed as inhibition of loperamide-stimulated [35S]GTP-gamma-S binding

>  <published_relation>  (461) 
=

>  <standard_value>  (461) 
1.4

>  <qudt_units>  (461) 
http://www.openphacts.org/units/Nanomolar

>  <target_tax_id>  (461) 
9606

>  <bao_label>  (461) 
assay format

>  <published_units>  (461) 
nM

>  <pchembl_value>  (461) 
8.85

>  <published_type>  (461) 
IC50

>  <activity_comment>  (461) 
None

$$$$

     RDKit          

 36 38  0  0  0  0  0  0  0  0999 V2000
    0.0000    0.0000    0.0000 C   0  0  0  0  0  0  0  0  0  0  0  0
    0.0000    0.0000    0.0000 C   0  0  0  0  0  0  0  0  0  0  0  0
    0.0000    0.0000    0.0000 C   0  0  0  0  0  0  0  0  0  0  0  0
    0.0000    0.0000    0.0000 N   0  0  0  0  0  0  0  0  0  0  0  0
    0.0000    0.0000    0.0000 C   0  0  0  0  0  0  0  0  0  0  0  0
    0.0000    0.0000    0.0000 C   0  0  0  0  0  0  0  0  0  0  0  0
    0.0000    0.0000    0.0000 C   0  0  0  0  0  0  0  0  0  0  0  0
    0.0000    0.0000    0.0000 C   0  0  0  0  0  0  0  0  0  0  0  0
    0.0000    0.0000    0.0000 C   0  0  0  0  0  0  0  0  0  0  0  0
    0.0000    0.0000    0.0000 C   0  0  0  0  0  0  0  0  0  0  0  0
    0.0000    0.0000    0.0000 C   0  0  0  0  0  0  0  0  0  0  0  0
    0.0000    0.0000    0.0000 C   0  0  0  0  0  0  0  0  0  0  0  0
    0.0000    0.0000    0.0000 C   0  0  0  0  0  0  0  0  0  0  0  0
    0.0000    0.0000    0.0000 C   0  0  0  0  0  0  0  0  0  0  0  0
    0.0000    0.0000    0.0000 O   0  0  0  0  0  0  0  0  0  0  0  0
    0.0000    0.0000    0.0000 N   0  0  0  0  0  0  0  0  0  0  0  0
    0.0000    0.0000    0.0000 C   0  0  0  0  0  0  0  0  0  0  0  0
    0.0000    0.0000    0.0000 C   0  0  0  0  0  0  0  0  0  0  0  0
    0.0000    0.0000    0.0000 C   0  0  0  0  0  0  0  0  0  0  0  0
    0.0000    0.0000    0.0000 C   0  0  0  0  0  0  0  0  0  0  0  0
    0.0000    0.0000    0.0000 O   0  0  0  0  0  0  0  0  0  0  0  0
    0.0000    0.0000    0.0000 O   0  0  0  0  0  0  0  0  0  0  0  0
    0.0000    0.0000    0.0000 C   0  0  0  0  0  0  0  0  0  0  0  0
    0.0000    0.0000    0.0000 O   0  0  0  0  0  0  0  0  0  0  0  0
    0.0000    0.0000    0.0000 O   0  0  0  0  0  0  0  0  0  0  0  0
    0.0000    0.0000    0.0000 C   0  0  0  0  0  0  0  0  0  0  0  0
    0.0000    0.0000    0.0000 C   0  0  0  0  0  0  0  0  0  0  0  0
    0.0000    0.0000    0.0000 C   0  0  0  0  0  0  0  0  0  0  0  0
    0.0000    0.0000    0.0000 C   0  0  0  0  0  0  0  0  0  0  0  0
    0.0000    0.0000    0.0000 C   0  0  0  0  0  0  0  0  0  0  0  0
    0.0000    0.0000    0.0000 C   0  0  0  0  0  0  0  0  0  0  0  0
    0.0000    0.0000    0.0000 C   0  0  0  0  0  0  0  0  0  0  0  0
    0.0000    0.0000    0.0000 C   0  0  0  0  0  0  0  0  0  0  0  0
    0.0000    0.0000    0.0000 C   0  0  0  0  0  0  0  0  0  0  0  0
    0.0000    0.0000    0.0000 O   0  0  0  0  0  0  0  0  0  0  0  0
    0.0000    0.0000    0.0000 C   0  0  0  0  0  0  0  0  0  0  0  0
  1  2  1  0
  2  3  1  0
  3  4  1  0
  4  5  1  0
  5  6  1  0
  6  7  1  0
  7  8  1  0
  8  9  2  0
  9 10  1  0
 10 11  2  0
 11 12  1  0
 12 13  2  0
  6 14  1  0
 14 15  2  0
 14 16  1  0
 16 17  1  0
 17 18  1  0
 18 19  1  0
 19 20  1  0
 20 21  2  0
 20 22  1  0
 17 23  1  0
 23 24  2  0
 23 25  1  0
  4 26  1  0
 26 27  1  0
 27 28  1  0
 28 29  1  0
 28 30  1  0
 30 31  2  0
 31 32  1  0
 32 33  2  0
 33 34  1  0
 34 35  1  0
 34 36  2  0
 28  2  1  0
 13  8  1  0
 36 30  1  0
M  END
>  <pIC50>  (462) 
7.89

>  <ChEMBL_ID>  (462) 
CHEMBL257895

>  <document_journal>  (462) 
Bioorg. Med. Chem. Lett.

>  <bao_endpoint>  (462) 
BAO_0000190

>  <potential_duplicate>  (462) 
False

>  <uo_units>  (462) 
UO_0000065

>  <canonical_smiles>  (462) 
C[C@H]1CN(C[C@H](Cc2ccccc2)C(=O)N[C@@H](CCC(=O)O)C(=O)O)CC[C@@]1(C)c3cccc(O)c3

>  <parent_molecule_chembl_id>  (462) 
CHEMBL257895

>  <assay_type>  (462) 
F

>  <src_id>  (462) 
1

>  <ligand_efficiency>  (462) 
None

>  <standard_flag>  (462) 
True

>  <molecule_chembl_id>  (462) 
CHEMBL257895

>  <target_organism>  (462) 
Homo sapiens

>  <standard_units>  (462) 
nM

>  <record_id>  (462) 
705480

>  <document_chembl_id>  (462) 
CHEMBL1144033

>  <bao_format>  (462) 
BAO_0000019

>  <data_validity_description>  (462) 
None

>  <activity_id>  (462) 
2119445

>  <standard_type>  (462) 
IC50

>  <target_chembl_id>  (462) 
CHEMBL233

>  <data_validity_comment>  (462) 
None

>  <published_value>  (462) 
13

>  <document_year>  (462) 
2008

>  <target_pref_name>  (462) 
Mu opioid receptor

>  <assay_chembl_id>  (462) 
CHEMBL933966

>  <standard_relation>  (462) 
=

>  <assay_description>  (462) 
Antagonist activity at human cloned mu opioid receptor assessed as inhibition of loperamide-stimulated [35S]GTP-gamma-S binding

>  <published_relation>  (462) 
=

>  <standard_value>  (462) 
13

>  <qudt_units>  (462) 
http://www.openphacts.org/units/Nanomolar

>  <target_tax_id>  (462) 
9606

>  <bao_label>  (462) 
assay format

>  <published_units>  (462) 
nM

>  <pchembl_value>  (462) 
7.89

>  <published_type>  (462) 
IC50

>  <activity_comment>  (462) 
None

$$$$

     RDKit          

 35 37  0  0  0  0  0  0  0  0999 V2000
    0.0000    0.0000    0.0000 C   0  0  0  0  0  0  0  0  0  0  0  0
    0.0000    0.0000    0.0000 C   0  0  0  0  0  0  0  0  0  0  0  0
    0.0000    0.0000    0.0000 C   0  0  0  0  0  0  0  0  0  0  0  0
    0.0000    0.0000    0.0000 N   0  0  0  0  0  0  0  0  0  0  0  0
    0.0000    0.0000    0.0000 C   0  0  0  0  0  0  0  0  0  0  0  0
    0.0000    0.0000    0.0000 C   0  0  0  0  0  0  0  0  0  0  0  0
    0.0000    0.0000    0.0000 C   0  0  0  0  0  0  0  0  0  0  0  0
    0.0000    0.0000    0.0000 C   0  0  0  0  0  0  0  0  0  0  0  0
    0.0000    0.0000    0.0000 C   0  0  0  0  0  0  0  0  0  0  0  0
    0.0000    0.0000    0.0000 C   0  0  0  0  0  0  0  0  0  0  0  0
    0.0000    0.0000    0.0000 C   0  0  0  0  0  0  0  0  0  0  0  0
    0.0000    0.0000    0.0000 C   0  0  0  0  0  0  0  0  0  0  0  0
    0.0000    0.0000    0.0000 C   0  0  0  0  0  0  0  0  0  0  0  0
    0.0000    0.0000    0.0000 C   0  0  0  0  0  0  0  0  0  0  0  0
    0.0000    0.0000    0.0000 O   0  0  0  0  0  0  0  0  0  0  0  0
    0.0000    0.0000    0.0000 N   0  0  0  0  0  0  0  0  0  0  0  0
    0.0000    0.0000    0.0000 C   0  0  0  0  0  0  0  0  0  0  0  0
    0.0000    0.0000    0.0000 C   0  0  0  0  0  0  0  0  0  0  0  0
    0.0000    0.0000    0.0000 C   0  0  0  0  0  0  0  0  0  0  0  0
    0.0000    0.0000    0.0000 O   0  0  0  0  0  0  0  0  0  0  0  0
    0.0000    0.0000    0.0000 O   0  0  0  0  0  0  0  0  0  0  0  0
    0.0000    0.0000    0.0000 C   0  0  0  0  0  0  0  0  0  0  0  0
    0.0000    0.0000    0.0000 O   0  0  0  0  0  0  0  0  0  0  0  0
    0.0000    0.0000    0.0000 O   0  0  0  0  0  0  0  0  0  0  0  0
    0.0000    0.0000    0.0000 C   0  0  0  0  0  0  0  0  0  0  0  0
    0.0000    0.0000    0.0000 C   0  0  0  0  0  0  0  0  0  0  0  0
    0.0000    0.0000    0.0000 C   0  0  0  0  0  0  0  0  0  0  0  0
    0.0000    0.0000    0.0000 C   0  0  0  0  0  0  0  0  0  0  0  0
    0.0000    0.0000    0.0000 C   0  0  0  0  0  0  0  0  0  0  0  0
    0.0000    0.0000    0.0000 C   0  0  0  0  0  0  0  0  0  0  0  0
    0.0000    0.0000    0.0000 C   0  0  0  0  0  0  0  0  0  0  0  0
    0.0000    0.0000    0.0000 C   0  0  0  0  0  0  0  0  0  0  0  0
    0.0000    0.0000    0.0000 C   0  0  0  0  0  0  0  0  0  0  0  0
    0.0000    0.0000    0.0000 O   0  0  0  0  0  0  0  0  0  0  0  0
    0.0000    0.0000    0.0000 C   0  0  0  0  0  0  0  0  0  0  0  0
  1  2  1  0
  2  3  1  0
  3  4  1  0
  4  5  1  0
  5  6  1  0
  6  7  1  0
  7  8  1  0
  8  9  2  0
  9 10  1  0
 10 11  2  0
 11 12  1  0
 12 13  2  0
  6 14  1  0
 14 15  2  0
 14 16  1  0
 16 17  1  0
 17 18  1  0
 18 19  1  0
 19 20  2  0
 19 21  1  0
 17 22  1  0
 22 23  2  0
 22 24  1  0
  4 25  1  0
 25 26  1  0
 26 27  1  0
 27 28  1  0
 27 29  1  0
 29 30  2  0
 30 31  1  0
 31 32  2  0
 32 33  1  0
 33 34  1  0
 33 35  2  0
 27  2  1  0
 13  8  1  0
 35 29  1  0
M  END
>  <pIC50>  (463) 
8.42

>  <ChEMBL_ID>  (463) 
CHEMBL401789

>  <document_journal>  (463) 
Bioorg. Med. Chem. Lett.

>  <bao_endpoint>  (463) 
BAO_0000190

>  <potential_duplicate>  (463) 
False

>  <uo_units>  (463) 
UO_0000065

>  <canonical_smiles>  (463) 
C[C@H]1CN(C[C@H](Cc2ccccc2)C(=O)N[C@@H](CC(=O)O)C(=O)O)CC[C@@]1(C)c3cccc(O)c3

>  <parent_molecule_chembl_id>  (463) 
CHEMBL401789

>  <assay_type>  (463) 
F

>  <src_id>  (463) 
1

>  <ligand_efficiency>  (463) 
None

>  <standard_flag>  (463) 
True

>  <molecule_chembl_id>  (463) 
CHEMBL401789

>  <target_organism>  (463) 
Homo sapiens

>  <standard_units>  (463) 
nM

>  <record_id>  (463) 
705479

>  <document_chembl_id>  (463) 
CHEMBL1144033

>  <bao_format>  (463) 
BAO_0000019

>  <data_validity_description>  (463) 
None

>  <activity_id>  (463) 
2119446

>  <standard_type>  (463) 
IC50

>  <target_chembl_id>  (463) 
CHEMBL233

>  <data_validity_comment>  (463) 
None

>  <published_value>  (463) 
3.8

>  <document_year>  (463) 
2008

>  <target_pref_name>  (463) 
Mu opioid receptor

>  <assay_chembl_id>  (463) 
CHEMBL933966

>  <standard_relation>  (463) 
=

>  <assay_description>  (463) 
Antagonist activity at human cloned mu opioid receptor assessed as inhibition of loperamide-stimulated [35S]GTP-gamma-S binding

>  <published_relation>  (463) 
=

>  <standard_value>  (463) 
3.8

>  <qudt_units>  (463) 
http://www.openphacts.org/units/Nanomolar

>  <target_tax_id>  (463) 
9606

>  <bao_label>  (463) 
assay format

>  <published_units>  (463) 
nM

>  <pchembl_value>  (463) 
8.42

>  <published_type>  (463) 
IC50

>  <activity_comment>  (463) 
None

$$$$

     RDKit          

 39 42  0  0  0  0  0  0  0  0999 V2000
    0.0000    0.0000    0.0000 C   0  0  0  0  0  0  0  0  0  0  0  0
    0.0000    0.0000    0.0000 C   0  0  0  0  0  0  0  0  0  0  0  0
    0.0000    0.0000    0.0000 C   0  0  0  0  0  0  0  0  0  0  0  0
    0.0000    0.0000    0.0000 N   0  0  0  0  0  0  0  0  0  0  0  0
    0.0000    0.0000    0.0000 C   0  0  0  0  0  0  0  0  0  0  0  0
    0.0000    0.0000    0.0000 C   0  0  0  0  0  0  0  0  0  0  0  0
    0.0000    0.0000    0.0000 C   0  0  0  0  0  0  0  0  0  0  0  0
    0.0000    0.0000    0.0000 C   0  0  0  0  0  0  0  0  0  0  0  0
    0.0000    0.0000    0.0000 C   0  0  0  0  0  0  0  0  0  0  0  0
    0.0000    0.0000    0.0000 C   0  0  0  0  0  0  0  0  0  0  0  0
    0.0000    0.0000    0.0000 C   0  0  0  0  0  0  0  0  0  0  0  0
    0.0000    0.0000    0.0000 C   0  0  0  0  0  0  0  0  0  0  0  0
    0.0000    0.0000    0.0000 C   0  0  0  0  0  0  0  0  0  0  0  0
    0.0000    0.0000    0.0000 C   0  0  0  0  0  0  0  0  0  0  0  0
    0.0000    0.0000    0.0000 O   0  0  0  0  0  0  0  0  0  0  0  0
    0.0000    0.0000    0.0000 N   0  0  0  0  0  0  0  0  0  0  0  0
    0.0000    0.0000    0.0000 C   0  0  0  0  0  0  0  0  0  0  0  0
    0.0000    0.0000    0.0000 C   0  0  0  0  0  0  0  0  0  0  0  0
    0.0000    0.0000    0.0000 C   0  0  0  0  0  0  0  0  0  0  0  0
    0.0000    0.0000    0.0000 C   0  0  0  0  0  0  0  0  0  0  0  0
    0.0000    0.0000    0.0000 C   0  0  0  0  0  0  0  0  0  0  0  0
    0.0000    0.0000    0.0000 C   0  0  0  0  0  0  0  0  0  0  0  0
    0.0000    0.0000    0.0000 C   0  0  0  0  0  0  0  0  0  0  0  0
    0.0000    0.0000    0.0000 C   0  0  0  0  0  0  0  0  0  0  0  0
    0.0000    0.0000    0.0000 C   0  0  0  0  0  0  0  0  0  0  0  0
    0.0000    0.0000    0.0000 C   0  0  0  0  0  0  0  0  0  0  0  0
    0.0000    0.0000    0.0000 O   0  0  0  0  0  0  0  0  0  0  0  0
    0.0000    0.0000    0.0000 O   0  0  0  0  0  0  0  0  0  0  0  0
    0.0000    0.0000    0.0000 C   0  0  0  0  0  0  0  0  0  0  0  0
    0.0000    0.0000    0.0000 C   0  0  0  0  0  0  0  0  0  0  0  0
    0.0000    0.0000    0.0000 C   0  0  0  0  0  0  0  0  0  0  0  0
    0.0000    0.0000    0.0000 C   0  0  0  0  0  0  0  0  0  0  0  0
    0.0000    0.0000    0.0000 C   0  0  0  0  0  0  0  0  0  0  0  0
    0.0000    0.0000    0.0000 C   0  0  0  0  0  0  0  0  0  0  0  0
    0.0000    0.0000    0.0000 C   0  0  0  0  0  0  0  0  0  0  0  0
    0.0000    0.0000    0.0000 C   0  0  0  0  0  0  0  0  0  0  0  0
    0.0000    0.0000    0.0000 C   0  0  0  0  0  0  0  0  0  0  0  0
    0.0000    0.0000    0.0000 O   0  0  0  0  0  0  0  0  0  0  0  0
    0.0000    0.0000    0.0000 C   0  0  0  0  0  0  0  0  0  0  0  0
  1  2  1  0
  2  3  1  0
  3  4  1  0
  4  5  1  0
  5  6  1  0
  6  7  1  0
  7  8  1  0
  8  9  2  0
  9 10  1  0
 10 11  2  0
 11 12  1  0
 12 13  2  0
  6 14  1  0
 14 15  2  0
 14 16  1  0
 16 17  1  0
 17 18  1  0
 18 19  1  0
 19 20  1  0
 20 21  2  0
 21 22  1  0
 22 23  2  0
 23 24  1  0
 24 25  2  0
 17 26  1  0
 26 27  2  0
 26 28  1  0
  4 29  1  0
 29 30  1  0
 30 31  1  0
 31 32  1  0
 31 33  1  0
 33 34  2  0
 34 35  1  0
 35 36  2  0
 36 37  1  0
 37 38  1  0
 37 39  2  0
 31  2  1  0
 13  8  1  0
 25 20  1  0
 39 33  1  0
M  END
>  <pIC50>  (464) 
8.0

>  <ChEMBL_ID>  (464) 
CHEMBL256010

>  <document_journal>  (464) 
Bioorg. Med. Chem. Lett.

>  <bao_endpoint>  (464) 
BAO_0000190

>  <potential_duplicate>  (464) 
False

>  <uo_units>  (464) 
UO_0000065

>  <canonical_smiles>  (464) 
C[C@H]1CN(C[C@H](Cc2ccccc2)C(=O)N[C@@H](CCc3ccccc3)C(=O)O)CC[C@@]1(C)c4cccc(O)c4

>  <parent_molecule_chembl_id>  (464) 
CHEMBL256010

>  <assay_type>  (464) 
F

>  <src_id>  (464) 
1

>  <ligand_efficiency>  (464) 
None

>  <standard_flag>  (464) 
True

>  <molecule_chembl_id>  (464) 
CHEMBL256010

>  <target_organism>  (464) 
Homo sapiens

>  <standard_units>  (464) 
nM

>  <record_id>  (464) 
705478

>  <document_chembl_id>  (464) 
CHEMBL1144033

>  <bao_format>  (464) 
BAO_0000019

>  <data_validity_description>  (464) 
None

>  <activity_id>  (464) 
2119447

>  <standard_type>  (464) 
IC50

>  <target_chembl_id>  (464) 
CHEMBL233

>  <data_validity_comment>  (464) 
None

>  <published_value>  (464) 
9.9

>  <document_year>  (464) 
2008

>  <target_pref_name>  (464) 
Mu opioid receptor

>  <assay_chembl_id>  (464) 
CHEMBL933966

>  <standard_relation>  (464) 
=

>  <assay_description>  (464) 
Antagonist activity at human cloned mu opioid receptor assessed as inhibition of loperamide-stimulated [35S]GTP-gamma-S binding

>  <published_relation>  (464) 
=

>  <standard_value>  (464) 
9.9

>  <qudt_units>  (464) 
http://www.openphacts.org/units/Nanomolar

>  <target_tax_id>  (464) 
9606

>  <bao_label>  (464) 
assay format

>  <published_units>  (464) 
nM

>  <pchembl_value>  (464) 
8

>  <published_type>  (464) 
IC50

>  <activity_comment>  (464) 
None

$$$$

     RDKit          

 38 41  0  0  0  0  0  0  0  0999 V2000
    0.0000    0.0000    0.0000 C   0  0  0  0  0  0  0  0  0  0  0  0
    0.0000    0.0000    0.0000 C   0  0  0  0  0  0  0  0  0  0  0  0
    0.0000    0.0000    0.0000 C   0  0  0  0  0  0  0  0  0  0  0  0
    0.0000    0.0000    0.0000 N   0  0  0  0  0  0  0  0  0  0  0  0
    0.0000    0.0000    0.0000 C   0  0  0  0  0  0  0  0  0  0  0  0
    0.0000    0.0000    0.0000 C   0  0  0  0  0  0  0  0  0  0  0  0
    0.0000    0.0000    0.0000 C   0  0  0  0  0  0  0  0  0  0  0  0
    0.0000    0.0000    0.0000 C   0  0  0  0  0  0  0  0  0  0  0  0
    0.0000    0.0000    0.0000 C   0  0  0  0  0  0  0  0  0  0  0  0
    0.0000    0.0000    0.0000 C   0  0  0  0  0  0  0  0  0  0  0  0
    0.0000    0.0000    0.0000 C   0  0  0  0  0  0  0  0  0  0  0  0
    0.0000    0.0000    0.0000 C   0  0  0  0  0  0  0  0  0  0  0  0
    0.0000    0.0000    0.0000 C   0  0  0  0  0  0  0  0  0  0  0  0
    0.0000    0.0000    0.0000 C   0  0  0  0  0  0  0  0  0  0  0  0
    0.0000    0.0000    0.0000 O   0  0  0  0  0  0  0  0  0  0  0  0
    0.0000    0.0000    0.0000 N   0  0  0  0  0  0  0  0  0  0  0  0
    0.0000    0.0000    0.0000 C   0  0  0  0  0  0  0  0  0  0  0  0
    0.0000    0.0000    0.0000 C   0  0  0  0  0  0  0  0  0  0  0  0
    0.0000    0.0000    0.0000 C   0  0  0  0  0  0  0  0  0  0  0  0
    0.0000    0.0000    0.0000 C   0  0  0  0  0  0  0  0  0  0  0  0
    0.0000    0.0000    0.0000 C   0  0  0  0  0  0  0  0  0  0  0  0
    0.0000    0.0000    0.0000 C   0  0  0  0  0  0  0  0  0  0  0  0
    0.0000    0.0000    0.0000 C   0  0  0  0  0  0  0  0  0  0  0  0
    0.0000    0.0000    0.0000 C   0  0  0  0  0  0  0  0  0  0  0  0
    0.0000    0.0000    0.0000 C   0  0  0  0  0  0  0  0  0  0  0  0
    0.0000    0.0000    0.0000 O   0  0  0  0  0  0  0  0  0  0  0  0
    0.0000    0.0000    0.0000 O   0  0  0  0  0  0  0  0  0  0  0  0
    0.0000    0.0000    0.0000 C   0  0  0  0  0  0  0  0  0  0  0  0
    0.0000    0.0000    0.0000 C   0  0  0  0  0  0  0  0  0  0  0  0
    0.0000    0.0000    0.0000 C   0  0  0  0  0  0  0  0  0  0  0  0
    0.0000    0.0000    0.0000 C   0  0  0  0  0  0  0  0  0  0  0  0
    0.0000    0.0000    0.0000 C   0  0  0  0  0  0  0  0  0  0  0  0
    0.0000    0.0000    0.0000 C   0  0  0  0  0  0  0  0  0  0  0  0
    0.0000    0.0000    0.0000 C   0  0  0  0  0  0  0  0  0  0  0  0
    0.0000    0.0000    0.0000 C   0  0  0  0  0  0  0  0  0  0  0  0
    0.0000    0.0000    0.0000 C   0  0  0  0  0  0  0  0  0  0  0  0
    0.0000    0.0000    0.0000 O   0  0  0  0  0  0  0  0  0  0  0  0
    0.0000    0.0000    0.0000 C   0  0  0  0  0  0  0  0  0  0  0  0
  1  2  1  0
  2  3  1  0
  3  4  1  0
  4  5  1  0
  5  6  1  0
  6  7  1  0
  7  8  1  0
  8  9  2  0
  9 10  1  0
 10 11  2  0
 11 12  1  0
 12 13  2  0
  6 14  1  0
 14 15  2  0
 14 16  1  0
 16 17  1  0
 17 18  1  0
 18 19  1  0
 19 20  1  0
 20 21  1  0
 21 22  1  0
 22 23  1  0
 23 24  1  0
 17 25  1  0
 25 26  2  0
 25 27  1  0
  4 28  1  0
 28 29  1  0
 29 30  1  0
 30 31  1  0
 30 32  1  0
 32 33  2  0
 33 34  1  0
 34 35  2  0
 35 36  1  0
 36 37  1  0
 36 38  2  0
 30  2  1  0
 13  8  1  0
 24 19  1  0
 38 32  1  0
M  END
>  <pIC50>  (465) 
8.28

>  <ChEMBL_ID>  (465) 
CHEMBL270401

>  <document_journal>  (465) 
Bioorg. Med. Chem. Lett.

>  <bao_endpoint>  (465) 
BAO_0000190

>  <potential_duplicate>  (465) 
False

>  <uo_units>  (465) 
UO_0000065

>  <canonical_smiles>  (465) 
C[C@H]1CN(C[C@H](Cc2ccccc2)C(=O)N[C@@H](CC3CCCCC3)C(=O)O)CC[C@@]1(C)c4cccc(O)c4

>  <parent_molecule_chembl_id>  (465) 
CHEMBL270401

>  <assay_type>  (465) 
F

>  <src_id>  (465) 
1

>  <ligand_efficiency>  (465) 
None

>  <standard_flag>  (465) 
True

>  <molecule_chembl_id>  (465) 
CHEMBL270401

>  <target_organism>  (465) 
Homo sapiens

>  <standard_units>  (465) 
nM

>  <record_id>  (465) 
705477

>  <document_chembl_id>  (465) 
CHEMBL1144033

>  <bao_format>  (465) 
BAO_0000019

>  <data_validity_description>  (465) 
None

>  <activity_id>  (465) 
2119448

>  <standard_type>  (465) 
IC50

>  <target_chembl_id>  (465) 
CHEMBL233

>  <data_validity_comment>  (465) 
None

>  <published_value>  (465) 
5.3

>  <document_year>  (465) 
2008

>  <target_pref_name>  (465) 
Mu opioid receptor

>  <assay_chembl_id>  (465) 
CHEMBL933966

>  <standard_relation>  (465) 
=

>  <assay_description>  (465) 
Antagonist activity at human cloned mu opioid receptor assessed as inhibition of loperamide-stimulated [35S]GTP-gamma-S binding

>  <published_relation>  (465) 
=

>  <standard_value>  (465) 
5.3

>  <qudt_units>  (465) 
http://www.openphacts.org/units/Nanomolar

>  <target_tax_id>  (465) 
9606

>  <bao_label>  (465) 
assay format

>  <published_units>  (465) 
nM

>  <pchembl_value>  (465) 
8.28

>  <published_type>  (465) 
IC50

>  <activity_comment>  (465) 
None

$$$$

     RDKit          

 42 46  0  0  0  0  0  0  0  0999 V2000
    0.0000    0.0000    0.0000 C   0  0  0  0  0  0  0  0  0  0  0  0
    0.0000    0.0000    0.0000 C   0  0  0  0  0  0  0  0  0  0  0  0
    0.0000    0.0000    0.0000 C   0  0  0  0  0  0  0  0  0  0  0  0
    0.0000    0.0000    0.0000 N   0  0  0  0  0  0  0  0  0  0  0  0
    0.0000    0.0000    0.0000 C   0  0  0  0  0  0  0  0  0  0  0  0
    0.0000    0.0000    0.0000 C   0  0  0  0  0  0  0  0  0  0  0  0
    0.0000    0.0000    0.0000 C   0  0  0  0  0  0  0  0  0  0  0  0
    0.0000    0.0000    0.0000 C   0  0  0  0  0  0  0  0  0  0  0  0
    0.0000    0.0000    0.0000 C   0  0  0  0  0  0  0  0  0  0  0  0
    0.0000    0.0000    0.0000 C   0  0  0  0  0  0  0  0  0  0  0  0
    0.0000    0.0000    0.0000 C   0  0  0  0  0  0  0  0  0  0  0  0
    0.0000    0.0000    0.0000 C   0  0  0  0  0  0  0  0  0  0  0  0
    0.0000    0.0000    0.0000 C   0  0  0  0  0  0  0  0  0  0  0  0
    0.0000    0.0000    0.0000 C   0  0  0  0  0  0  0  0  0  0  0  0
    0.0000    0.0000    0.0000 O   0  0  0  0  0  0  0  0  0  0  0  0
    0.0000    0.0000    0.0000 N   0  0  0  0  0  0  0  0  0  0  0  0
    0.0000    0.0000    0.0000 C   0  0  0  0  0  0  0  0  0  0  0  0
    0.0000    0.0000    0.0000 C   0  0  0  0  0  0  0  0  0  0  0  0
    0.0000    0.0000    0.0000 C   0  0  0  0  0  0  0  0  0  0  0  0
    0.0000    0.0000    0.0000 C   0  0  0  0  0  0  0  0  0  0  0  0
    0.0000    0.0000    0.0000 C   0  0  0  0  0  0  0  0  0  0  0  0
    0.0000    0.0000    0.0000 C   0  0  0  0  0  0  0  0  0  0  0  0
    0.0000    0.0000    0.0000 C   0  0  0  0  0  0  0  0  0  0  0  0
    0.0000    0.0000    0.0000 C   0  0  0  0  0  0  0  0  0  0  0  0
    0.0000    0.0000    0.0000 C   0  0  0  0  0  0  0  0  0  0  0  0
    0.0000    0.0000    0.0000 C   0  0  0  0  0  0  0  0  0  0  0  0
    0.0000    0.0000    0.0000 C   0  0  0  0  0  0  0  0  0  0  0  0
    0.0000    0.0000    0.0000 C   0  0  0  0  0  0  0  0  0  0  0  0
    0.0000    0.0000    0.0000 C   0  0  0  0  0  0  0  0  0  0  0  0
    0.0000    0.0000    0.0000 O   0  0  0  0  0  0  0  0  0  0  0  0
    0.0000    0.0000    0.0000 O   0  0  0  0  0  0  0  0  0  0  0  0
    0.0000    0.0000    0.0000 C   0  0  0  0  0  0  0  0  0  0  0  0
    0.0000    0.0000    0.0000 C   0  0  0  0  0  0  0  0  0  0  0  0
    0.0000    0.0000    0.0000 C   0  0  0  0  0  0  0  0  0  0  0  0
    0.0000    0.0000    0.0000 C   0  0  0  0  0  0  0  0  0  0  0  0
    0.0000    0.0000    0.0000 C   0  0  0  0  0  0  0  0  0  0  0  0
    0.0000    0.0000    0.0000 C   0  0  0  0  0  0  0  0  0  0  0  0
    0.0000    0.0000    0.0000 C   0  0  0  0  0  0  0  0  0  0  0  0
    0.0000    0.0000    0.0000 C   0  0  0  0  0  0  0  0  0  0  0  0
    0.0000    0.0000    0.0000 C   0  0  0  0  0  0  0  0  0  0  0  0
    0.0000    0.0000    0.0000 O   0  0  0  0  0  0  0  0  0  0  0  0
    0.0000    0.0000    0.0000 C   0  0  0  0  0  0  0  0  0  0  0  0
  1  2  1  0
  2  3  1  0
  3  4  1  0
  4  5  1  0
  5  6  1  0
  6  7  1  0
  7  8  1  0
  8  9  2  0
  9 10  1  0
 10 11  2  0
 11 12  1  0
 12 13  2  0
  6 14  1  0
 14 15  2  0
 14 16  1  0
 16 17  1  0
 17 18  1  0
 18 19  1  0
 19 20  2  0
 20 21  1  0
 21 22  2  0
 22 23  1  0
 23 24  2  0
 24 25  1  0
 25 26  2  0
 26 27  1  0
 27 28  2  0
 17 29  1  0
 29 30  2  0
 29 31  1  0
  4 32  1  0
 32 33  1  0
 33 34  1  0
 34 35  1  0
 34 36  1  0
 36 37  2  0
 37 38  1  0
 38 39  2  0
 39 40  1  0
 40 41  1  0
 40 42  2  0
 34  2  1  0
 13  8  1  0
 28 19  1  0
 27 22  1  0
 42 36  1  0
M  END
>  <pIC50>  (466) 
8.21

>  <ChEMBL_ID>  (466) 
CHEMBL270187

>  <document_journal>  (466) 
Bioorg. Med. Chem. Lett.

>  <bao_endpoint>  (466) 
BAO_0000190

>  <potential_duplicate>  (466) 
False

>  <uo_units>  (466) 
UO_0000065

>  <canonical_smiles>  (466) 
C[C@H]1CN(C[C@H](Cc2ccccc2)C(=O)N[C@@H](Cc3ccc4ccccc4c3)C(=O)O)CC[C@@]1(C)c5cccc(O)c5

>  <parent_molecule_chembl_id>  (466) 
CHEMBL270187

>  <assay_type>  (466) 
F

>  <src_id>  (466) 
1

>  <ligand_efficiency>  (466) 
None

>  <standard_flag>  (466) 
True

>  <molecule_chembl_id>  (466) 
CHEMBL270187

>  <target_organism>  (466) 
Homo sapiens

>  <standard_units>  (466) 
nM

>  <record_id>  (466) 
705476

>  <document_chembl_id>  (466) 
CHEMBL1144033

>  <bao_format>  (466) 
BAO_0000019

>  <data_validity_description>  (466) 
None

>  <activity_id>  (466) 
2119449

>  <standard_type>  (466) 
IC50

>  <target_chembl_id>  (466) 
CHEMBL233

>  <data_validity_comment>  (466) 
None

>  <published_value>  (466) 
6.2

>  <document_year>  (466) 
2008

>  <target_pref_name>  (466) 
Mu opioid receptor

>  <assay_chembl_id>  (466) 
CHEMBL933966

>  <standard_relation>  (466) 
=

>  <assay_description>  (466) 
Antagonist activity at human cloned mu opioid receptor assessed as inhibition of loperamide-stimulated [35S]GTP-gamma-S binding

>  <published_relation>  (466) 
=

>  <standard_value>  (466) 
6.2

>  <qudt_units>  (466) 
http://www.openphacts.org/units/Nanomolar

>  <target_tax_id>  (466) 
9606

>  <bao_label>  (466) 
assay format

>  <published_units>  (466) 
nM

>  <pchembl_value>  (466) 
8.21

>  <published_type>  (466) 
IC50

>  <activity_comment>  (466) 
None

$$$$

     RDKit          

 42 46  0  0  0  0  0  0  0  0999 V2000
    0.0000    0.0000    0.0000 C   0  0  0  0  0  0  0  0  0  0  0  0
    0.0000    0.0000    0.0000 C   0  0  0  0  0  0  0  0  0  0  0  0
    0.0000    0.0000    0.0000 C   0  0  0  0  0  0  0  0  0  0  0  0
    0.0000    0.0000    0.0000 N   0  0  0  0  0  0  0  0  0  0  0  0
    0.0000    0.0000    0.0000 C   0  0  0  0  0  0  0  0  0  0  0  0
    0.0000    0.0000    0.0000 C   0  0  0  0  0  0  0  0  0  0  0  0
    0.0000    0.0000    0.0000 C   0  0  0  0  0  0  0  0  0  0  0  0
    0.0000    0.0000    0.0000 C   0  0  0  0  0  0  0  0  0  0  0  0
    0.0000    0.0000    0.0000 C   0  0  0  0  0  0  0  0  0  0  0  0
    0.0000    0.0000    0.0000 C   0  0  0  0  0  0  0  0  0  0  0  0
    0.0000    0.0000    0.0000 C   0  0  0  0  0  0  0  0  0  0  0  0
    0.0000    0.0000    0.0000 C   0  0  0  0  0  0  0  0  0  0  0  0
    0.0000    0.0000    0.0000 C   0  0  0  0  0  0  0  0  0  0  0  0
    0.0000    0.0000    0.0000 C   0  0  0  0  0  0  0  0  0  0  0  0
    0.0000    0.0000    0.0000 O   0  0  0  0  0  0  0  0  0  0  0  0
    0.0000    0.0000    0.0000 N   0  0  0  0  0  0  0  0  0  0  0  0
    0.0000    0.0000    0.0000 C   0  0  0  0  0  0  0  0  0  0  0  0
    0.0000    0.0000    0.0000 C   0  0  0  0  0  0  0  0  0  0  0  0
    0.0000    0.0000    0.0000 C   0  0  0  0  0  0  0  0  0  0  0  0
    0.0000    0.0000    0.0000 C   0  0  0  0  0  0  0  0  0  0  0  0
    0.0000    0.0000    0.0000 C   0  0  0  0  0  0  0  0  0  0  0  0
    0.0000    0.0000    0.0000 C   0  0  0  0  0  0  0  0  0  0  0  0
    0.0000    0.0000    0.0000 C   0  0  0  0  0  0  0  0  0  0  0  0
    0.0000    0.0000    0.0000 C   0  0  0  0  0  0  0  0  0  0  0  0
    0.0000    0.0000    0.0000 C   0  0  0  0  0  0  0  0  0  0  0  0
    0.0000    0.0000    0.0000 C   0  0  0  0  0  0  0  0  0  0  0  0
    0.0000    0.0000    0.0000 C   0  0  0  0  0  0  0  0  0  0  0  0
    0.0000    0.0000    0.0000 C   0  0  0  0  0  0  0  0  0  0  0  0
    0.0000    0.0000    0.0000 C   0  0  0  0  0  0  0  0  0  0  0  0
    0.0000    0.0000    0.0000 O   0  0  0  0  0  0  0  0  0  0  0  0
    0.0000    0.0000    0.0000 O   0  0  0  0  0  0  0  0  0  0  0  0
    0.0000    0.0000    0.0000 C   0  0  0  0  0  0  0  0  0  0  0  0
    0.0000    0.0000    0.0000 C   0  0  0  0  0  0  0  0  0  0  0  0
    0.0000    0.0000    0.0000 C   0  0  0  0  0  0  0  0  0  0  0  0
    0.0000    0.0000    0.0000 C   0  0  0  0  0  0  0  0  0  0  0  0
    0.0000    0.0000    0.0000 C   0  0  0  0  0  0  0  0  0  0  0  0
    0.0000    0.0000    0.0000 C   0  0  0  0  0  0  0  0  0  0  0  0
    0.0000    0.0000    0.0000 C   0  0  0  0  0  0  0  0  0  0  0  0
    0.0000    0.0000    0.0000 C   0  0  0  0  0  0  0  0  0  0  0  0
    0.0000    0.0000    0.0000 C   0  0  0  0  0  0  0  0  0  0  0  0
    0.0000    0.0000    0.0000 O   0  0  0  0  0  0  0  0  0  0  0  0
    0.0000    0.0000    0.0000 C   0  0  0  0  0  0  0  0  0  0  0  0
  1  2  1  0
  2  3  1  0
  3  4  1  0
  4  5  1  0
  5  6  1  0
  6  7  1  0
  7  8  1  0
  8  9  2  0
  9 10  1  0
 10 11  2  0
 11 12  1  0
 12 13  2  0
  6 14  1  0
 14 15  2  0
 14 16  1  0
 16 17  1  0
 17 18  1  0
 18 19  1  0
 19 20  2  0
 20 21  1  0
 21 22  2  0
 22 23  1  0
 23 24  2  0
 24 25  1  0
 25 26  2  0
 26 27  1  0
 27 28  2  0
 17 29  1  0
 29 30  2  0
 29 31  1  0
  4 32  1  0
 32 33  1  0
 33 34  1  0
 34 35  1  0
 34 36  1  0
 36 37  2  0
 37 38  1  0
 38 39  2  0
 39 40  1  0
 40 41  1  0
 40 42  2  0
 34  2  1  0
 13  8  1  0
 28 19  1  0
 28 23  1  0
 42 36  1  0
M  END
>  <pIC50>  (467) 
8.1

>  <ChEMBL_ID>  (467) 
CHEMBL404303

>  <document_journal>  (467) 
Bioorg. Med. Chem. Lett.

>  <bao_endpoint>  (467) 
BAO_0000190

>  <potential_duplicate>  (467) 
False

>  <uo_units>  (467) 
UO_0000065

>  <canonical_smiles>  (467) 
C[C@H]1CN(C[C@H](Cc2ccccc2)C(=O)N[C@@H](Cc3cccc4ccccc34)C(=O)O)CC[C@@]1(C)c5cccc(O)c5

>  <parent_molecule_chembl_id>  (467) 
CHEMBL404303

>  <assay_type>  (467) 
F

>  <src_id>  (467) 
1

>  <ligand_efficiency>  (467) 
None

>  <standard_flag>  (467) 
True

>  <molecule_chembl_id>  (467) 
CHEMBL404303

>  <target_organism>  (467) 
Homo sapiens

>  <standard_units>  (467) 
nM

>  <record_id>  (467) 
705475

>  <document_chembl_id>  (467) 
CHEMBL1144033

>  <bao_format>  (467) 
BAO_0000019

>  <data_validity_description>  (467) 
None

>  <activity_id>  (467) 
2119450

>  <standard_type>  (467) 
IC50

>  <target_chembl_id>  (467) 
CHEMBL233

>  <data_validity_comment>  (467) 
None

>  <published_value>  (467) 
7.9

>  <document_year>  (467) 
2008

>  <target_pref_name>  (467) 
Mu opioid receptor

>  <assay_chembl_id>  (467) 
CHEMBL933966

>  <standard_relation>  (467) 
=

>  <assay_description>  (467) 
Antagonist activity at human cloned mu opioid receptor assessed as inhibition of loperamide-stimulated [35S]GTP-gamma-S binding

>  <published_relation>  (467) 
=

>  <standard_value>  (467) 
7.9

>  <qudt_units>  (467) 
http://www.openphacts.org/units/Nanomolar

>  <target_tax_id>  (467) 
9606

>  <bao_label>  (467) 
assay format

>  <published_units>  (467) 
nM

>  <pchembl_value>  (467) 
8.1

>  <published_type>  (467) 
IC50

>  <activity_comment>  (467) 
None

$$$$

     RDKit          

 44 48  0  0  0  0  0  0  0  0999 V2000
    0.0000    0.0000    0.0000 C   0  0  0  0  0  0  0  0  0  0  0  0
    0.0000    0.0000    0.0000 C   0  0  0  0  0  0  0  0  0  0  0  0
    0.0000    0.0000    0.0000 C   0  0  0  0  0  0  0  0  0  0  0  0
    0.0000    0.0000    0.0000 N   0  0  0  0  0  0  0  0  0  0  0  0
    0.0000    0.0000    0.0000 C   0  0  0  0  0  0  0  0  0  0  0  0
    0.0000    0.0000    0.0000 C   0  0  0  0  0  0  0  0  0  0  0  0
    0.0000    0.0000    0.0000 C   0  0  0  0  0  0  0  0  0  0  0  0
    0.0000    0.0000    0.0000 C   0  0  0  0  0  0  0  0  0  0  0  0
    0.0000    0.0000    0.0000 C   0  0  0  0  0  0  0  0  0  0  0  0
    0.0000    0.0000    0.0000 C   0  0  0  0  0  0  0  0  0  0  0  0
    0.0000    0.0000    0.0000 C   0  0  0  0  0  0  0  0  0  0  0  0
    0.0000    0.0000    0.0000 C   0  0  0  0  0  0  0  0  0  0  0  0
    0.0000    0.0000    0.0000 C   0  0  0  0  0  0  0  0  0  0  0  0
    0.0000    0.0000    0.0000 C   0  0  0  0  0  0  0  0  0  0  0  0
    0.0000    0.0000    0.0000 O   0  0  0  0  0  0  0  0  0  0  0  0
    0.0000    0.0000    0.0000 N   0  0  0  0  0  0  0  0  0  0  0  0
    0.0000    0.0000    0.0000 C   0  0  0  0  0  0  0  0  0  0  0  0
    0.0000    0.0000    0.0000 C   0  0  0  0  0  0  0  0  0  0  0  0
    0.0000    0.0000    0.0000 C   0  0  0  0  0  0  0  0  0  0  0  0
    0.0000    0.0000    0.0000 C   0  0  0  0  0  0  0  0  0  0  0  0
    0.0000    0.0000    0.0000 C   0  0  0  0  0  0  0  0  0  0  0  0
    0.0000    0.0000    0.0000 C   0  0  0  0  0  0  0  0  0  0  0  0
    0.0000    0.0000    0.0000 C   0  0  0  0  0  0  0  0  0  0  0  0
    0.0000    0.0000    0.0000 C   0  0  0  0  0  0  0  0  0  0  0  0
    0.0000    0.0000    0.0000 C   0  0  0  0  0  0  0  0  0  0  0  0
    0.0000    0.0000    0.0000 C   0  0  0  0  0  0  0  0  0  0  0  0
    0.0000    0.0000    0.0000 C   0  0  0  0  0  0  0  0  0  0  0  0
    0.0000    0.0000    0.0000 C   0  0  0  0  0  0  0  0  0  0  0  0
    0.0000    0.0000    0.0000 C   0  0  0  0  0  0  0  0  0  0  0  0
    0.0000    0.0000    0.0000 C   0  0  0  0  0  0  0  0  0  0  0  0
    0.0000    0.0000    0.0000 C   0  0  0  0  0  0  0  0  0  0  0  0
    0.0000    0.0000    0.0000 O   0  0  0  0  0  0  0  0  0  0  0  0
    0.0000    0.0000    0.0000 O   0  0  0  0  0  0  0  0  0  0  0  0
    0.0000    0.0000    0.0000 C   0  0  0  0  0  0  0  0  0  0  0  0
    0.0000    0.0000    0.0000 C   0  0  0  0  0  0  0  0  0  0  0  0
    0.0000    0.0000    0.0000 C   0  0  0  0  0  0  0  0  0  0  0  0
    0.0000    0.0000    0.0000 C   0  0  0  0  0  0  0  0  0  0  0  0
    0.0000    0.0000    0.0000 C   0  0  0  0  0  0  0  0  0  0  0  0
    0.0000    0.0000    0.0000 C   0  0  0  0  0  0  0  0  0  0  0  0
    0.0000    0.0000    0.0000 C   0  0  0  0  0  0  0  0  0  0  0  0
    0.0000    0.0000    0.0000 C   0  0  0  0  0  0  0  0  0  0  0  0
    0.0000    0.0000    0.0000 C   0  0  0  0  0  0  0  0  0  0  0  0
    0.0000    0.0000    0.0000 O   0  0  0  0  0  0  0  0  0  0  0  0
    0.0000    0.0000    0.0000 C   0  0  0  0  0  0  0  0  0  0  0  0
  1  2  1  0
  2  3  1  0
  3  4  1  0
  4  5  1  0
  5  6  1  0
  6  7  1  0
  7  8  1  0
  8  9  2  0
  9 10  1  0
 10 11  2  0
 11 12  1  0
 12 13  2  0
  6 14  1  0
 14 15  2  0
 14 16  1  0
 16 17  1  0
 17 18  1  0
 18 19  1  0
 19 20  2  0
 20 21  1  0
 21 22  2  0
 22 23  1  0
 23 24  2  0
 22 25  1  0
 25 26  2  0
 26 27  1  0
 27 28  2  0
 28 29  1  0
 29 30  2  0
 17 31  1  0
 31 32  2  0
 31 33  1  0
  4 34  1  0
 34 35  1  0
 35 36  1  0
 36 37  1  0
 36 38  1  0
 38 39  2  0
 39 40  1  0
 40 41  2  0
 41 42  1  0
 42 43  1  0
 42 44  2  0
 36  2  1  0
 13  8  1  0
 24 19  1  0
 30 25  1  0
 44 38  1  0
M  END
>  <pIC50>  (468) 
7.68

>  <ChEMBL_ID>  (468) 
CHEMBL402964

>  <document_journal>  (468) 
Bioorg. Med. Chem. Lett.

>  <bao_endpoint>  (468) 
BAO_0000190

>  <potential_duplicate>  (468) 
False

>  <uo_units>  (468) 
UO_0000065

>  <canonical_smiles>  (468) 
C[C@H]1CN(C[C@H](Cc2ccccc2)C(=O)N[C@@H](Cc3ccc(cc3)c4ccccc4)C(=O)O)CC[C@@]1(C)c5cccc(O)c5

>  <parent_molecule_chembl_id>  (468) 
CHEMBL402964

>  <assay_type>  (468) 
F

>  <src_id>  (468) 
1

>  <ligand_efficiency>  (468) 
None

>  <standard_flag>  (468) 
True

>  <molecule_chembl_id>  (468) 
CHEMBL402964

>  <target_organism>  (468) 
Homo sapiens

>  <standard_units>  (468) 
nM

>  <record_id>  (468) 
705474

>  <document_chembl_id>  (468) 
CHEMBL1144033

>  <bao_format>  (468) 
BAO_0000019

>  <data_validity_description>  (468) 
None

>  <activity_id>  (468) 
2119451

>  <standard_type>  (468) 
IC50

>  <target_chembl_id>  (468) 
CHEMBL233

>  <data_validity_comment>  (468) 
None

>  <published_value>  (468) 
21

>  <document_year>  (468) 
2008

>  <target_pref_name>  (468) 
Mu opioid receptor

>  <assay_chembl_id>  (468) 
CHEMBL933966

>  <standard_relation>  (468) 
=

>  <assay_description>  (468) 
Antagonist activity at human cloned mu opioid receptor assessed as inhibition of loperamide-stimulated [35S]GTP-gamma-S binding

>  <published_relation>  (468) 
=

>  <standard_value>  (468) 
21

>  <qudt_units>  (468) 
http://www.openphacts.org/units/Nanomolar

>  <target_tax_id>  (468) 
9606

>  <bao_label>  (468) 
assay format

>  <published_units>  (468) 
nM

>  <pchembl_value>  (468) 
7.68

>  <published_type>  (468) 
IC50

>  <activity_comment>  (468) 
None

$$$$

     RDKit          

 38 41  0  0  0  0  0  0  0  0999 V2000
    0.0000    0.0000    0.0000 C   0  0  0  0  0  0  0  0  0  0  0  0
    0.0000    0.0000    0.0000 C   0  0  0  0  0  0  0  0  0  0  0  0
    0.0000    0.0000    0.0000 C   0  0  0  0  0  0  0  0  0  0  0  0
    0.0000    0.0000    0.0000 N   0  0  0  0  0  0  0  0  0  0  0  0
    0.0000    0.0000    0.0000 C   0  0  0  0  0  0  0  0  0  0  0  0
    0.0000    0.0000    0.0000 C   0  0  0  0  0  0  0  0  0  0  0  0
    0.0000    0.0000    0.0000 C   0  0  0  0  0  0  0  0  0  0  0  0
    0.0000    0.0000    0.0000 C   0  0  0  0  0  0  0  0  0  0  0  0
    0.0000    0.0000    0.0000 C   0  0  0  0  0  0  0  0  0  0  0  0
    0.0000    0.0000    0.0000 C   0  0  0  0  0  0  0  0  0  0  0  0
    0.0000    0.0000    0.0000 C   0  0  0  0  0  0  0  0  0  0  0  0
    0.0000    0.0000    0.0000 C   0  0  0  0  0  0  0  0  0  0  0  0
    0.0000    0.0000    0.0000 C   0  0  0  0  0  0  0  0  0  0  0  0
    0.0000    0.0000    0.0000 C   0  0  0  0  0  0  0  0  0  0  0  0
    0.0000    0.0000    0.0000 O   0  0  0  0  0  0  0  0  0  0  0  0
    0.0000    0.0000    0.0000 N   0  0  0  0  0  0  0  0  0  0  0  0
    0.0000    0.0000    0.0000 C   0  0  0  0  0  0  0  0  0  0  0  0
    0.0000    0.0000    0.0000 C   0  0  0  0  0  0  0  0  0  0  0  0
    0.0000    0.0000    0.0000 C   0  0  0  0  0  0  0  0  0  0  0  0
    0.0000    0.0000    0.0000 C   0  0  0  0  0  0  0  0  0  0  0  0
    0.0000    0.0000    0.0000 C   0  0  0  0  0  0  0  0  0  0  0  0
    0.0000    0.0000    0.0000 C   0  0  0  0  0  0  0  0  0  0  0  0
    0.0000    0.0000    0.0000 C   0  0  0  0  0  0  0  0  0  0  0  0
    0.0000    0.0000    0.0000 C   0  0  0  0  0  0  0  0  0  0  0  0
    0.0000    0.0000    0.0000 C   0  0  0  0  0  0  0  0  0  0  0  0
    0.0000    0.0000    0.0000 O   0  0  0  0  0  0  0  0  0  0  0  0
    0.0000    0.0000    0.0000 O   0  0  0  0  0  0  0  0  0  0  0  0
    0.0000    0.0000    0.0000 C   0  0  0  0  0  0  0  0  0  0  0  0
    0.0000    0.0000    0.0000 C   0  0  0  0  0  0  0  0  0  0  0  0
    0.0000    0.0000    0.0000 C   0  0  0  0  0  0  0  0  0  0  0  0
    0.0000    0.0000    0.0000 C   0  0  0  0  0  0  0  0  0  0  0  0
    0.0000    0.0000    0.0000 C   0  0  0  0  0  0  0  0  0  0  0  0
    0.0000    0.0000    0.0000 C   0  0  0  0  0  0  0  0  0  0  0  0
    0.0000    0.0000    0.0000 C   0  0  0  0  0  0  0  0  0  0  0  0
    0.0000    0.0000    0.0000 C   0  0  0  0  0  0  0  0  0  0  0  0
    0.0000    0.0000    0.0000 C   0  0  0  0  0  0  0  0  0  0  0  0
    0.0000    0.0000    0.0000 O   0  0  0  0  0  0  0  0  0  0  0  0
    0.0000    0.0000    0.0000 C   0  0  0  0  0  0  0  0  0  0  0  0
  1  2  1  0
  2  3  1  0
  3  4  1  0
  4  5  1  0
  5  6  1  0
  6  7  1  0
  7  8  1  0
  8  9  2  0
  9 10  1  0
 10 11  2  0
 11 12  1  0
 12 13  2  0
  6 14  1  0
 14 15  2  0
 14 16  1  0
 16 17  1  0
 17 18  1  0
 18 19  1  0
 19 20  2  0
 20 21  1  0
 21 22  2  0
 22 23  1  0
 23 24  2  0
 17 25  1  0
 25 26  2  0
 25 27  1  0
  4 28  1  0
 28 29  1  0
 29 30  1  0
 30 31  1  0
 30 32  1  0
 32 33  2  0
 33 34  1  0
 34 35  2  0
 35 36  1  0
 36 37  1  0
 36 38  2  0
 30  2  1  0
 13  8  1  0
 24 19  1  0
 38 32  1  0
M  END
>  <pIC50>  (469) 
8.82

>  <ChEMBL_ID>  (469) 
CHEMBL403190

>  <document_journal>  (469) 
Bioorg. Med. Chem. Lett.

>  <bao_endpoint>  (469) 
BAO_0000190

>  <potential_duplicate>  (469) 
False

>  <uo_units>  (469) 
UO_0000065

>  <canonical_smiles>  (469) 
C[C@H]1CN(C[C@H](Cc2ccccc2)C(=O)N[C@@H](Cc3ccccc3)C(=O)O)CC[C@@]1(C)c4cccc(O)c4

>  <parent_molecule_chembl_id>  (469) 
CHEMBL403190

>  <assay_type>  (469) 
F

>  <src_id>  (469) 
1

>  <ligand_efficiency>  (469) 
None

>  <standard_flag>  (469) 
True

>  <molecule_chembl_id>  (469) 
CHEMBL403190

>  <target_organism>  (469) 
Homo sapiens

>  <standard_units>  (469) 
nM

>  <record_id>  (469) 
705473

>  <document_chembl_id>  (469) 
CHEMBL1144033

>  <bao_format>  (469) 
BAO_0000019

>  <data_validity_description>  (469) 
None

>  <activity_id>  (469) 
2119452

>  <standard_type>  (469) 
IC50

>  <target_chembl_id>  (469) 
CHEMBL233

>  <data_validity_comment>  (469) 
None

>  <published_value>  (469) 
1.5

>  <document_year>  (469) 
2008

>  <target_pref_name>  (469) 
Mu opioid receptor

>  <assay_chembl_id>  (469) 
CHEMBL933966

>  <standard_relation>  (469) 
=

>  <assay_description>  (469) 
Antagonist activity at human cloned mu opioid receptor assessed as inhibition of loperamide-stimulated [35S]GTP-gamma-S binding

>  <published_relation>  (469) 
=

>  <standard_value>  (469) 
1.5

>  <qudt_units>  (469) 
http://www.openphacts.org/units/Nanomolar

>  <target_tax_id>  (469) 
9606

>  <bao_label>  (469) 
assay format

>  <published_units>  (469) 
nM

>  <pchembl_value>  (469) 
8.82

>  <published_type>  (469) 
IC50

>  <activity_comment>  (469) 
None

$$$$

     RDKit          

 32 34  0  0  0  0  0  0  0  0999 V2000
    0.0000    0.0000    0.0000 C   0  0  0  0  0  0  0  0  0  0  0  0
    0.0000    0.0000    0.0000 C   0  0  0  0  0  0  0  0  0  0  0  0
    0.0000    0.0000    0.0000 N   0  0  0  0  0  0  0  0  0  0  0  0
    0.0000    0.0000    0.0000 C   0  0  0  0  0  0  0  0  0  0  0  0
    0.0000    0.0000    0.0000 O   0  0  0  0  0  0  0  0  0  0  0  0
    0.0000    0.0000    0.0000 C   0  0  0  0  0  0  0  0  0  0  0  0
    0.0000    0.0000    0.0000 C   0  0  0  0  0  0  0  0  0  0  0  0
    0.0000    0.0000    0.0000 N   0  0  0  0  0  0  0  0  0  0  0  0
    0.0000    0.0000    0.0000 C   0  0  0  0  0  0  0  0  0  0  0  0
    0.0000    0.0000    0.0000 C   0  0  0  0  0  0  0  0  0  0  0  0
    0.0000    0.0000    0.0000 C   0  0  0  0  0  0  0  0  0  0  0  0
    0.0000    0.0000    0.0000 C   0  0  0  0  0  0  0  0  0  0  0  0
    0.0000    0.0000    0.0000 C   0  0  0  0  0  0  0  0  0  0  0  0
    0.0000    0.0000    0.0000 C   0  0  0  0  0  0  0  0  0  0  0  0
    0.0000    0.0000    0.0000 C   0  0  0  0  0  0  0  0  0  0  0  0
    0.0000    0.0000    0.0000 C   0  0  0  0  0  0  0  0  0  0  0  0
    0.0000    0.0000    0.0000 C   0  0  0  0  0  0  0  0  0  0  0  0
    0.0000    0.0000    0.0000 C   0  0  0  0  0  0  0  0  0  0  0  0
    0.0000    0.0000    0.0000 C   0  0  0  0  0  0  0  0  0  0  0  0
    0.0000    0.0000    0.0000 C   0  0  0  0  0  0  0  0  0  0  0  0
    0.0000    0.0000    0.0000 O   0  0  0  0  0  0  0  0  0  0  0  0
    0.0000    0.0000    0.0000 C   0  0  0  0  0  0  0  0  0  0  0  0
    0.0000    0.0000    0.0000 C   0  0  0  0  0  0  0  0  0  0  0  0
    0.0000    0.0000    0.0000 C   0  0  0  0  0  0  0  0  0  0  0  0
    0.0000    0.0000    0.0000 C   0  0  0  0  0  0  0  0  0  0  0  0
    0.0000    0.0000    0.0000 C   0  0  0  0  0  0  0  0  0  0  0  0
    0.0000    0.0000    0.0000 C   0  0  0  0  0  0  0  0  0  0  0  0
    0.0000    0.0000    0.0000 C   0  0  0  0  0  0  0  0  0  0  0  0
    0.0000    0.0000    0.0000 C   0  0  0  0  0  0  0  0  0  0  0  0
    0.0000    0.0000    0.0000 C   0  0  0  0  0  0  0  0  0  0  0  0
    0.0000    0.0000    0.0000 O   0  0  0  0  0  0  0  0  0  0  0  0
    0.0000    0.0000    0.0000 O   0  0  0  0  0  0  0  0  0  0  0  0
  1  2  1  0
  2  3  1  0
  3  4  1  0
  4  5  2  0
  4  6  1  0
  6  7  1  0
  7  8  1  0
  8  9  1  0
  9 10  1  0
 10 11  1  0
 11 12  1  0
 11 13  1  0
 13 14  1  0
 13 15  1  0
 11 16  1  0
 16 17  2  0
 17 18  1  0
 18 19  2  0
 19 20  1  0
 20 21  1  0
 20 22  2  0
  6 23  1  0
 23 24  1  0
 24 25  2  0
 25 26  1  0
 26 27  2  0
 27 28  1  0
 28 29  2  0
  2 30  1  0
 30 31  2  0
 30 32  1  0
 15  8  1  0
 22 16  1  0
 29 24  1  0
M  END
>  <pIC50>  (470) 
8.52

>  <ChEMBL_ID>  (470) 
CHEMBL255354

>  <document_journal>  (470) 
Bioorg. Med. Chem. Lett.

>  <bao_endpoint>  (470) 
BAO_0000190

>  <potential_duplicate>  (470) 
False

>  <uo_units>  (470) 
UO_0000065

>  <canonical_smiles>  (470) 
C[C@@H](NC(=O)[C@H](CN1CC[C@](C)([C@@H](C)C1)c2cccc(O)c2)Cc3ccccc3)C(=O)O

>  <parent_molecule_chembl_id>  (470) 
CHEMBL255354

>  <assay_type>  (470) 
F

>  <src_id>  (470) 
1

>  <ligand_efficiency>  (470) 
None

>  <standard_flag>  (470) 
True

>  <molecule_chembl_id>  (470) 
CHEMBL255354

>  <target_organism>  (470) 
Homo sapiens

>  <standard_units>  (470) 
nM

>  <record_id>  (470) 
705472

>  <document_chembl_id>  (470) 
CHEMBL1144033

>  <bao_format>  (470) 
BAO_0000019

>  <data_validity_description>  (470) 
None

>  <activity_id>  (470) 
2119453

>  <standard_type>  (470) 
IC50

>  <target_chembl_id>  (470) 
CHEMBL233

>  <data_validity_comment>  (470) 
None

>  <published_value>  (470) 
3

>  <document_year>  (470) 
2008

>  <target_pref_name>  (470) 
Mu opioid receptor

>  <assay_chembl_id>  (470) 
CHEMBL933966

>  <standard_relation>  (470) 
=

>  <assay_description>  (470) 
Antagonist activity at human cloned mu opioid receptor assessed as inhibition of loperamide-stimulated [35S]GTP-gamma-S binding

>  <published_relation>  (470) 
=

>  <standard_value>  (470) 
3

>  <qudt_units>  (470) 
http://www.openphacts.org/units/Nanomolar

>  <target_tax_id>  (470) 
9606

>  <bao_label>  (470) 
assay format

>  <published_units>  (470) 
nM

>  <pchembl_value>  (470) 
8.52

>  <published_type>  (470) 
IC50

>  <activity_comment>  (470) 
None

$$$$

     RDKit          

 32 34  0  0  0  0  0  0  0  0999 V2000
    0.0000    0.0000    0.0000 C   0  0  0  0  0  0  0  0  0  0  0  0
    0.0000    0.0000    0.0000 C   0  0  0  0  0  0  0  0  0  0  0  0
    0.0000    0.0000    0.0000 N   0  0  0  0  0  0  0  0  0  0  0  0
    0.0000    0.0000    0.0000 C   0  0  0  0  0  0  0  0  0  0  0  0
    0.0000    0.0000    0.0000 O   0  0  0  0  0  0  0  0  0  0  0  0
    0.0000    0.0000    0.0000 C   0  0  0  0  0  0  0  0  0  0  0  0
    0.0000    0.0000    0.0000 C   0  0  0  0  0  0  0  0  0  0  0  0
    0.0000    0.0000    0.0000 N   0  0  0  0  0  0  0  0  0  0  0  0
    0.0000    0.0000    0.0000 C   0  0  0  0  0  0  0  0  0  0  0  0
    0.0000    0.0000    0.0000 C   0  0  0  0  0  0  0  0  0  0  0  0
    0.0000    0.0000    0.0000 C   0  0  0  0  0  0  0  0  0  0  0  0
    0.0000    0.0000    0.0000 C   0  0  0  0  0  0  0  0  0  0  0  0
    0.0000    0.0000    0.0000 C   0  0  0  0  0  0  0  0  0  0  0  0
    0.0000    0.0000    0.0000 C   0  0  0  0  0  0  0  0  0  0  0  0
    0.0000    0.0000    0.0000 C   0  0  0  0  0  0  0  0  0  0  0  0
    0.0000    0.0000    0.0000 C   0  0  0  0  0  0  0  0  0  0  0  0
    0.0000    0.0000    0.0000 C   0  0  0  0  0  0  0  0  0  0  0  0
    0.0000    0.0000    0.0000 C   0  0  0  0  0  0  0  0  0  0  0  0
    0.0000    0.0000    0.0000 C   0  0  0  0  0  0  0  0  0  0  0  0
    0.0000    0.0000    0.0000 C   0  0  0  0  0  0  0  0  0  0  0  0
    0.0000    0.0000    0.0000 O   0  0  0  0  0  0  0  0  0  0  0  0
    0.0000    0.0000    0.0000 C   0  0  0  0  0  0  0  0  0  0  0  0
    0.0000    0.0000    0.0000 C   0  0  0  0  0  0  0  0  0  0  0  0
    0.0000    0.0000    0.0000 C   0  0  0  0  0  0  0  0  0  0  0  0
    0.0000    0.0000    0.0000 C   0  0  0  0  0  0  0  0  0  0  0  0
    0.0000    0.0000    0.0000 C   0  0  0  0  0  0  0  0  0  0  0  0
    0.0000    0.0000    0.0000 C   0  0  0  0  0  0  0  0  0  0  0  0
    0.0000    0.0000    0.0000 C   0  0  0  0  0  0  0  0  0  0  0  0
    0.0000    0.0000    0.0000 C   0  0  0  0  0  0  0  0  0  0  0  0
    0.0000    0.0000    0.0000 C   0  0  0  0  0  0  0  0  0  0  0  0
    0.0000    0.0000    0.0000 O   0  0  0  0  0  0  0  0  0  0  0  0
    0.0000    0.0000    0.0000 O   0  0  0  0  0  0  0  0  0  0  0  0
  1  2  1  0
  2  3  1  0
  3  4  1  0
  4  5  2  0
  4  6  1  0
  6  7  1  0
  7  8  1  0
  8  9  1  0
  9 10  1  0
 10 11  1  0
 11 12  1  0
 11 13  1  0
 13 14  1  0
 13 15  1  0
 11 16  1  0
 16 17  2  0
 17 18  1  0
 18 19  2  0
 19 20  1  0
 20 21  1  0
 20 22  2  0
  6 23  1  0
 23 24  1  0
 24 25  2  0
 25 26  1  0
 26 27  2  0
 27 28  1  0
 28 29  2  0
  2 30  1  0
 30 31  2  0
 30 32  1  0
 15  8  1  0
 22 16  1  0
 29 24  1  0
M  END
>  <pIC50>  (471) 
8.92

>  <ChEMBL_ID>  (471) 
CHEMBL403633

>  <document_journal>  (471) 
Bioorg. Med. Chem. Lett.

>  <bao_endpoint>  (471) 
BAO_0000190

>  <potential_duplicate>  (471) 
False

>  <uo_units>  (471) 
UO_0000065

>  <canonical_smiles>  (471) 
C[C@H](NC(=O)[C@H](CN1CC[C@](C)([C@@H](C)C1)c2cccc(O)c2)Cc3ccccc3)C(=O)O

>  <parent_molecule_chembl_id>  (471) 
CHEMBL403633

>  <assay_type>  (471) 
F

>  <src_id>  (471) 
1

>  <ligand_efficiency>  (471) 
None

>  <standard_flag>  (471) 
True

>  <molecule_chembl_id>  (471) 
CHEMBL403633

>  <target_organism>  (471) 
Homo sapiens

>  <standard_units>  (471) 
nM

>  <record_id>  (471) 
705471

>  <document_chembl_id>  (471) 
CHEMBL1144033

>  <bao_format>  (471) 
BAO_0000019

>  <data_validity_description>  (471) 
None

>  <activity_id>  (471) 
2119454

>  <standard_type>  (471) 
IC50

>  <target_chembl_id>  (471) 
CHEMBL233

>  <data_validity_comment>  (471) 
None

>  <published_value>  (471) 
1.2

>  <document_year>  (471) 
2008

>  <target_pref_name>  (471) 
Mu opioid receptor

>  <assay_chembl_id>  (471) 
CHEMBL933966

>  <standard_relation>  (471) 
=

>  <assay_description>  (471) 
Antagonist activity at human cloned mu opioid receptor assessed as inhibition of loperamide-stimulated [35S]GTP-gamma-S binding

>  <published_relation>  (471) 
=

>  <standard_value>  (471) 
1.2

>  <qudt_units>  (471) 
http://www.openphacts.org/units/Nanomolar

>  <target_tax_id>  (471) 
9606

>  <bao_label>  (471) 
assay format

>  <published_units>  (471) 
nM

>  <pchembl_value>  (471) 
8.92

>  <published_type>  (471) 
IC50

>  <activity_comment>  (471) 
None

$$$$

     RDKit          

 39 42  0  0  0  0  0  0  0  0999 V2000
    0.0000    0.0000    0.0000 C   0  0  0  0  0  0  0  0  0  0  0  0
    0.0000    0.0000    0.0000 C   0  0  0  0  0  0  0  0  0  0  0  0
    0.0000    0.0000    0.0000 C   0  0  0  0  0  0  0  0  0  0  0  0
    0.0000    0.0000    0.0000 N   0  0  0  0  0  0  0  0  0  0  0  0
    0.0000    0.0000    0.0000 C   0  0  0  0  0  0  0  0  0  0  0  0
    0.0000    0.0000    0.0000 C   0  0  0  0  0  0  0  0  0  0  0  0
    0.0000    0.0000    0.0000 C   0  0  0  0  0  0  0  0  0  0  0  0
    0.0000    0.0000    0.0000 O   0  0  0  0  0  0  0  0  0  0  0  0
    0.0000    0.0000    0.0000 N   0  0  0  0  0  0  0  0  0  0  0  0
    0.0000    0.0000    0.0000 C   0  0  0  0  0  0  0  0  0  0  0  0
    0.0000    0.0000    0.0000 C   0  0  0  0  0  0  0  0  0  0  0  0
    0.0000    0.0000    0.0000 C   0  0  0  0  0  0  0  0  0  0  0  0
    0.0000    0.0000    0.0000 C   0  0  0  0  0  0  0  0  0  0  0  0
    0.0000    0.0000    0.0000 C   0  0  0  0  0  0  0  0  0  0  0  0
    0.0000    0.0000    0.0000 C   0  0  0  0  0  0  0  0  0  0  0  0
    0.0000    0.0000    0.0000 Cl  0  0  0  0  0  0  0  0  0  0  0  0
    0.0000    0.0000    0.0000 C   0  0  0  0  0  0  0  0  0  0  0  0
    0.0000    0.0000    0.0000 C   0  0  0  0  0  0  0  0  0  0  0  0
    0.0000    0.0000    0.0000 C   0  0  0  0  0  0  0  0  0  0  0  0
    0.0000    0.0000    0.0000 C   0  0  0  0  0  0  0  0  0  0  0  0
    0.0000    0.0000    0.0000 C   0  0  0  0  0  0  0  0  0  0  0  0
    0.0000    0.0000    0.0000 C   0  0  0  0  0  0  0  0  0  0  0  0
    0.0000    0.0000    0.0000 C   0  0  0  0  0  0  0  0  0  0  0  0
    0.0000    0.0000    0.0000 C   0  0  0  0  0  0  0  0  0  0  0  0
    0.0000    0.0000    0.0000 C   0  0  0  0  0  0  0  0  0  0  0  0
    0.0000    0.0000    0.0000 C   0  0  0  0  0  0  0  0  0  0  0  0
    0.0000    0.0000    0.0000 O   0  0  0  0  0  0  0  0  0  0  0  0
    0.0000    0.0000    0.0000 O   0  0  0  0  0  0  0  0  0  0  0  0
    0.0000    0.0000    0.0000 C   0  0  0  0  0  0  0  0  0  0  0  0
    0.0000    0.0000    0.0000 C   0  0  0  0  0  0  0  0  0  0  0  0
    0.0000    0.0000    0.0000 C   0  0  0  0  0  0  0  0  0  0  0  0
    0.0000    0.0000    0.0000 C   0  0  0  0  0  0  0  0  0  0  0  0
    0.0000    0.0000    0.0000 C   0  0  0  0  0  0  0  0  0  0  0  0
    0.0000    0.0000    0.0000 C   0  0  0  0  0  0  0  0  0  0  0  0
    0.0000    0.0000    0.0000 C   0  0  0  0  0  0  0  0  0  0  0  0
    0.0000    0.0000    0.0000 C   0  0  0  0  0  0  0  0  0  0  0  0
    0.0000    0.0000    0.0000 C   0  0  0  0  0  0  0  0  0  0  0  0
    0.0000    0.0000    0.0000 O   0  0  0  0  0  0  0  0  0  0  0  0
    0.0000    0.0000    0.0000 C   0  0  0  0  0  0  0  0  0  0  0  0
  1  2  1  0
  2  3  1  0
  3  4  1  0
  4  5  1  0
  5  6  1  0
  6  7  1  0
  7  8  2  0
  7  9  1  0
  9 10  1  0
 10 11  1  0
 11 12  2  0
 12 13  1  0
 13 14  2  0
 14 15  1  0
 15 16  1  0
 15 17  2  0
  9 18  1  0
 18 19  1  0
 19 20  1  0
 20 21  2  0
 21 22  1  0
 22 23  2  0
 23 24  1  0
 24 25  2  0
 18 26  1  0
 26 27  2  0
 26 28  1  0
  4 29  1  0
 29 30  1  0
 30 31  1  0
 31 32  1  0
 31 33  1  0
 33 34  2  0
 34 35  1  0
 35 36  2  0
 36 37  1  0
 37 38  1  0
 37 39  2  0
 31  2  1  0
 17 11  1  0
 25 20  1  0
 39 33  1  0
M  END
>  <pIC50>  (472) 
8.17

>  <ChEMBL_ID>  (472) 
CHEMBL271662

>  <document_journal>  (472) 
Bioorg. Med. Chem. Lett.

>  <bao_endpoint>  (472) 
BAO_0000190

>  <potential_duplicate>  (472) 
False

>  <uo_units>  (472) 
UO_0000065

>  <canonical_smiles>  (472) 
C[C@H]1CN(CCC(=O)N(Cc2cccc(Cl)c2)[C@@H](Cc3ccccc3)C(=O)O)CC[C@@]1(C)c4cccc(O)c4

>  <parent_molecule_chembl_id>  (472) 
CHEMBL271662

>  <assay_type>  (472) 
F

>  <src_id>  (472) 
1

>  <ligand_efficiency>  (472) 
None

>  <standard_flag>  (472) 
True

>  <molecule_chembl_id>  (472) 
CHEMBL271662

>  <target_organism>  (472) 
Homo sapiens

>  <standard_units>  (472) 
nM

>  <record_id>  (472) 
705470

>  <document_chembl_id>  (472) 
CHEMBL1144033

>  <bao_format>  (472) 
BAO_0000019

>  <data_validity_description>  (472) 
None

>  <activity_id>  (472) 
2119455

>  <standard_type>  (472) 
IC50

>  <target_chembl_id>  (472) 
CHEMBL233

>  <data_validity_comment>  (472) 
None

>  <published_value>  (472) 
6.8

>  <document_year>  (472) 
2008

>  <target_pref_name>  (472) 
Mu opioid receptor

>  <assay_chembl_id>  (472) 
CHEMBL933966

>  <standard_relation>  (472) 
=

>  <assay_description>  (472) 
Antagonist activity at human cloned mu opioid receptor assessed as inhibition of loperamide-stimulated [35S]GTP-gamma-S binding

>  <published_relation>  (472) 
=

>  <standard_value>  (472) 
6.8

>  <qudt_units>  (472) 
http://www.openphacts.org/units/Nanomolar

>  <target_tax_id>  (472) 
9606

>  <bao_label>  (472) 
assay format

>  <published_units>  (472) 
nM

>  <pchembl_value>  (472) 
8.17

>  <published_type>  (472) 
IC50

>  <activity_comment>  (472) 
None

$$$$

     RDKit          

 44 48  0  0  0  0  0  0  0  0999 V2000
    0.0000    0.0000    0.0000 C   0  0  0  0  0  0  0  0  0  0  0  0
    0.0000    0.0000    0.0000 C   0  0  0  0  0  0  0  0  0  0  0  0
    0.0000    0.0000    0.0000 C   0  0  0  0  0  0  0  0  0  0  0  0
    0.0000    0.0000    0.0000 N   0  0  0  0  0  0  0  0  0  0  0  0
    0.0000    0.0000    0.0000 C   0  0  0  0  0  0  0  0  0  0  0  0
    0.0000    0.0000    0.0000 C   0  0  0  0  0  0  0  0  0  0  0  0
    0.0000    0.0000    0.0000 C   0  0  0  0  0  0  0  0  0  0  0  0
    0.0000    0.0000    0.0000 O   0  0  0  0  0  0  0  0  0  0  0  0
    0.0000    0.0000    0.0000 N   0  0  0  0  0  0  0  0  0  0  0  0
    0.0000    0.0000    0.0000 C   0  0  0  0  0  0  0  0  0  0  0  0
    0.0000    0.0000    0.0000 C   0  0  0  0  0  0  0  0  0  0  0  0
    0.0000    0.0000    0.0000 C   0  0  0  0  0  0  0  0  0  0  0  0
    0.0000    0.0000    0.0000 C   0  0  0  0  0  0  0  0  0  0  0  0
    0.0000    0.0000    0.0000 C   0  0  0  0  0  0  0  0  0  0  0  0
    0.0000    0.0000    0.0000 C   0  0  0  0  0  0  0  0  0  0  0  0
    0.0000    0.0000    0.0000 C   0  0  0  0  0  0  0  0  0  0  0  0
    0.0000    0.0000    0.0000 C   0  0  0  0  0  0  0  0  0  0  0  0
    0.0000    0.0000    0.0000 C   0  0  0  0  0  0  0  0  0  0  0  0
    0.0000    0.0000    0.0000 C   0  0  0  0  0  0  0  0  0  0  0  0
    0.0000    0.0000    0.0000 C   0  0  0  0  0  0  0  0  0  0  0  0
    0.0000    0.0000    0.0000 C   0  0  0  0  0  0  0  0  0  0  0  0
    0.0000    0.0000    0.0000 C   0  0  0  0  0  0  0  0  0  0  0  0
    0.0000    0.0000    0.0000 C   0  0  0  0  0  0  0  0  0  0  0  0
    0.0000    0.0000    0.0000 C   0  0  0  0  0  0  0  0  0  0  0  0
    0.0000    0.0000    0.0000 C   0  0  0  0  0  0  0  0  0  0  0  0
    0.0000    0.0000    0.0000 C   0  0  0  0  0  0  0  0  0  0  0  0
    0.0000    0.0000    0.0000 C   0  0  0  0  0  0  0  0  0  0  0  0
    0.0000    0.0000    0.0000 C   0  0  0  0  0  0  0  0  0  0  0  0
    0.0000    0.0000    0.0000 C   0  0  0  0  0  0  0  0  0  0  0  0
    0.0000    0.0000    0.0000 C   0  0  0  0  0  0  0  0  0  0  0  0
    0.0000    0.0000    0.0000 C   0  0  0  0  0  0  0  0  0  0  0  0
    0.0000    0.0000    0.0000 O   0  0  0  0  0  0  0  0  0  0  0  0
    0.0000    0.0000    0.0000 O   0  0  0  0  0  0  0  0  0  0  0  0
    0.0000    0.0000    0.0000 C   0  0  0  0  0  0  0  0  0  0  0  0
    0.0000    0.0000    0.0000 C   0  0  0  0  0  0  0  0  0  0  0  0
    0.0000    0.0000    0.0000 C   0  0  0  0  0  0  0  0  0  0  0  0
    0.0000    0.0000    0.0000 C   0  0  0  0  0  0  0  0  0  0  0  0
    0.0000    0.0000    0.0000 C   0  0  0  0  0  0  0  0  0  0  0  0
    0.0000    0.0000    0.0000 C   0  0  0  0  0  0  0  0  0  0  0  0
    0.0000    0.0000    0.0000 C   0  0  0  0  0  0  0  0  0  0  0  0
    0.0000    0.0000    0.0000 C   0  0  0  0  0  0  0  0  0  0  0  0
    0.0000    0.0000    0.0000 C   0  0  0  0  0  0  0  0  0  0  0  0
    0.0000    0.0000    0.0000 O   0  0  0  0  0  0  0  0  0  0  0  0
    0.0000    0.0000    0.0000 C   0  0  0  0  0  0  0  0  0  0  0  0
  1  2  1  0
  2  3  1  0
  3  4  1  0
  4  5  1  0
  5  6  1  0
  6  7  1  0
  7  8  2  0
  7  9  1  0
  9 10  1  0
 10 11  1  0
 11 12  2  0
 12 13  1  0
 13 14  2  0
 14 15  1  0
 15 16  2  0
 14 17  1  0
 17 18  2  0
 18 19  1  0
 19 20  2  0
 20 21  1  0
 21 22  2  0
  9 23  1  0
 23 24  1  0
 24 25  1  0
 25 26  2  0
 26 27  1  0
 27 28  2  0
 28 29  1  0
 29 30  2  0
 23 31  1  0
 31 32  2  0
 31 33  1  0
  4 34  1  0
 34 35  1  0
 35 36  1  0
 36 37  1  0
 36 38  1  0
 38 39  2  0
 39 40  1  0
 40 41  2  0
 41 42  1  0
 42 43  1  0
 42 44  2  0
 36  2  1  0
 16 11  1  0
 22 17  1  0
 30 25  1  0
 44 38  1  0
M  END
>  <pIC50>  (473) 
7.44

>  <ChEMBL_ID>  (473) 
CHEMBL270833

>  <document_journal>  (473) 
Bioorg. Med. Chem. Lett.

>  <bao_endpoint>  (473) 
BAO_0000190

>  <potential_duplicate>  (473) 
False

>  <uo_units>  (473) 
UO_0000065

>  <canonical_smiles>  (473) 
C[C@H]1CN(CCC(=O)N(Cc2ccc(cc2)c3ccccc3)[C@@H](Cc4ccccc4)C(=O)O)CC[C@@]1(C)c5cccc(O)c5

>  <parent_molecule_chembl_id>  (473) 
CHEMBL270833

>  <assay_type>  (473) 
F

>  <src_id>  (473) 
1

>  <ligand_efficiency>  (473) 
None

>  <standard_flag>  (473) 
True

>  <molecule_chembl_id>  (473) 
CHEMBL270833

>  <target_organism>  (473) 
Homo sapiens

>  <standard_units>  (473) 
nM

>  <record_id>  (473) 
705469

>  <document_chembl_id>  (473) 
CHEMBL1144033

>  <bao_format>  (473) 
BAO_0000019

>  <data_validity_description>  (473) 
None

>  <activity_id>  (473) 
2119456

>  <standard_type>  (473) 
IC50

>  <target_chembl_id>  (473) 
CHEMBL233

>  <data_validity_comment>  (473) 
None

>  <published_value>  (473) 
36

>  <document_year>  (473) 
2008

>  <target_pref_name>  (473) 
Mu opioid receptor

>  <assay_chembl_id>  (473) 
CHEMBL933966

>  <standard_relation>  (473) 
=

>  <assay_description>  (473) 
Antagonist activity at human cloned mu opioid receptor assessed as inhibition of loperamide-stimulated [35S]GTP-gamma-S binding

>  <published_relation>  (473) 
=

>  <standard_value>  (473) 
36

>  <qudt_units>  (473) 
http://www.openphacts.org/units/Nanomolar

>  <target_tax_id>  (473) 
9606

>  <bao_label>  (473) 
assay format

>  <published_units>  (473) 
nM

>  <pchembl_value>  (473) 
7.44

>  <published_type>  (473) 
IC50

>  <activity_comment>  (473) 
None

$$$$

     RDKit          

 39 42  0  0  0  0  0  0  0  0999 V2000
    0.0000    0.0000    0.0000 C   0  0  0  0  0  0  0  0  0  0  0  0
    0.0000    0.0000    0.0000 C   0  0  0  0  0  0  0  0  0  0  0  0
    0.0000    0.0000    0.0000 C   0  0  0  0  0  0  0  0  0  0  0  0
    0.0000    0.0000    0.0000 N   0  0  0  0  0  0  0  0  0  0  0  0
    0.0000    0.0000    0.0000 C   0  0  0  0  0  0  0  0  0  0  0  0
    0.0000    0.0000    0.0000 C   0  0  0  0  0  0  0  0  0  0  0  0
    0.0000    0.0000    0.0000 C   0  0  0  0  0  0  0  0  0  0  0  0
    0.0000    0.0000    0.0000 O   0  0  0  0  0  0  0  0  0  0  0  0
    0.0000    0.0000    0.0000 N   0  0  0  0  0  0  0  0  0  0  0  0
    0.0000    0.0000    0.0000 C   0  0  0  0  0  0  0  0  0  0  0  0
    0.0000    0.0000    0.0000 C   0  0  0  0  0  0  0  0  0  0  0  0
    0.0000    0.0000    0.0000 C   0  0  0  0  0  0  0  0  0  0  0  0
    0.0000    0.0000    0.0000 C   0  0  0  0  0  0  0  0  0  0  0  0
    0.0000    0.0000    0.0000 C   0  0  0  0  0  0  0  0  0  0  0  0
    0.0000    0.0000    0.0000 C   0  0  0  0  0  0  0  0  0  0  0  0
    0.0000    0.0000    0.0000 C   0  0  0  0  0  0  0  0  0  0  0  0
    0.0000    0.0000    0.0000 C   0  0  0  0  0  0  0  0  0  0  0  0
    0.0000    0.0000    0.0000 C   0  0  0  0  0  0  0  0  0  0  0  0
    0.0000    0.0000    0.0000 C   0  0  0  0  0  0  0  0  0  0  0  0
    0.0000    0.0000    0.0000 C   0  0  0  0  0  0  0  0  0  0  0  0
    0.0000    0.0000    0.0000 C   0  0  0  0  0  0  0  0  0  0  0  0
    0.0000    0.0000    0.0000 C   0  0  0  0  0  0  0  0  0  0  0  0
    0.0000    0.0000    0.0000 C   0  0  0  0  0  0  0  0  0  0  0  0
    0.0000    0.0000    0.0000 C   0  0  0  0  0  0  0  0  0  0  0  0
    0.0000    0.0000    0.0000 C   0  0  0  0  0  0  0  0  0  0  0  0
    0.0000    0.0000    0.0000 C   0  0  0  0  0  0  0  0  0  0  0  0
    0.0000    0.0000    0.0000 O   0  0  0  0  0  0  0  0  0  0  0  0
    0.0000    0.0000    0.0000 O   0  0  0  0  0  0  0  0  0  0  0  0
    0.0000    0.0000    0.0000 C   0  0  0  0  0  0  0  0  0  0  0  0
    0.0000    0.0000    0.0000 C   0  0  0  0  0  0  0  0  0  0  0  0
    0.0000    0.0000    0.0000 C   0  0  0  0  0  0  0  0  0  0  0  0
    0.0000    0.0000    0.0000 C   0  0  0  0  0  0  0  0  0  0  0  0
    0.0000    0.0000    0.0000 C   0  0  0  0  0  0  0  0  0  0  0  0
    0.0000    0.0000    0.0000 C   0  0  0  0  0  0  0  0  0  0  0  0
    0.0000    0.0000    0.0000 C   0  0  0  0  0  0  0  0  0  0  0  0
    0.0000    0.0000    0.0000 C   0  0  0  0  0  0  0  0  0  0  0  0
    0.0000    0.0000    0.0000 C   0  0  0  0  0  0  0  0  0  0  0  0
    0.0000    0.0000    0.0000 O   0  0  0  0  0  0  0  0  0  0  0  0
    0.0000    0.0000    0.0000 C   0  0  0  0  0  0  0  0  0  0  0  0
  1  2  1  0
  2  3  1  0
  3  4  1  0
  4  5  1  0
  5  6  1  0
  6  7  1  0
  7  8  2  0
  7  9  1  0
  9 10  1  0
 10 11  1  0
 11 12  1  0
 12 13  2  0
 13 14  1  0
 14 15  2  0
 15 16  1  0
 16 17  2  0
  9 18  1  0
 18 19  1  0
 19 20  1  0
 20 21  2  0
 21 22  1  0
 22 23  2  0
 23 24  1  0
 24 25  2  0
 18 26  1  0
 26 27  2  0
 26 28  1  0
  4 29  1  0
 29 30  1  0
 30 31  1  0
 31 32  1  0
 31 33  1  0
 33 34  2  0
 34 35  1  0
 35 36  2  0
 36 37  1  0
 37 38  1  0
 37 39  2  0
 31  2  1  0
 17 12  1  0
 25 20  1  0
 39 33  1  0
M  END
>  <pIC50>  (474) 
7.2

>  <ChEMBL_ID>  (474) 
CHEMBL403191

>  <document_journal>  (474) 
Bioorg. Med. Chem. Lett.

>  <bao_endpoint>  (474) 
BAO_0000190

>  <potential_duplicate>  (474) 
False

>  <uo_units>  (474) 
UO_0000065

>  <canonical_smiles>  (474) 
C[C@H]1CN(CCC(=O)N(CCc2ccccc2)[C@@H](Cc3ccccc3)C(=O)O)CC[C@@]1(C)c4cccc(O)c4

>  <parent_molecule_chembl_id>  (474) 
CHEMBL403191

>  <assay_type>  (474) 
F

>  <src_id>  (474) 
1

>  <ligand_efficiency>  (474) 
None

>  <standard_flag>  (474) 
True

>  <molecule_chembl_id>  (474) 
CHEMBL403191

>  <target_organism>  (474) 
Homo sapiens

>  <standard_units>  (474) 
nM

>  <record_id>  (474) 
705468

>  <document_chembl_id>  (474) 
CHEMBL1144033

>  <bao_format>  (474) 
BAO_0000019

>  <data_validity_description>  (474) 
None

>  <activity_id>  (474) 
2119457

>  <standard_type>  (474) 
IC50

>  <target_chembl_id>  (474) 
CHEMBL233

>  <data_validity_comment>  (474) 
None

>  <published_value>  (474) 
63

>  <document_year>  (474) 
2008

>  <target_pref_name>  (474) 
Mu opioid receptor

>  <assay_chembl_id>  (474) 
CHEMBL933966

>  <standard_relation>  (474) 
=

>  <assay_description>  (474) 
Antagonist activity at human cloned mu opioid receptor assessed as inhibition of loperamide-stimulated [35S]GTP-gamma-S binding

>  <published_relation>  (474) 
=

>  <standard_value>  (474) 
63

>  <qudt_units>  (474) 
http://www.openphacts.org/units/Nanomolar

>  <target_tax_id>  (474) 
9606

>  <bao_label>  (474) 
assay format

>  <published_units>  (474) 
nM

>  <pchembl_value>  (474) 
7.2

>  <published_type>  (474) 
IC50

>  <activity_comment>  (474) 
None

$$$$

     RDKit          

 38 41  0  0  0  0  0  0  0  0999 V2000
    0.0000    0.0000    0.0000 C   0  0  0  0  0  0  0  0  0  0  0  0
    0.0000    0.0000    0.0000 C   0  0  0  0  0  0  0  0  0  0  0  0
    0.0000    0.0000    0.0000 C   0  0  0  0  0  0  0  0  0  0  0  0
    0.0000    0.0000    0.0000 N   0  0  0  0  0  0  0  0  0  0  0  0
    0.0000    0.0000    0.0000 C   0  0  0  0  0  0  0  0  0  0  0  0
    0.0000    0.0000    0.0000 C   0  0  0  0  0  0  0  0  0  0  0  0
    0.0000    0.0000    0.0000 C   0  0  0  0  0  0  0  0  0  0  0  0
    0.0000    0.0000    0.0000 O   0  0  0  0  0  0  0  0  0  0  0  0
    0.0000    0.0000    0.0000 N   0  0  0  0  0  0  0  0  0  0  0  0
    0.0000    0.0000    0.0000 C   0  0  0  0  0  0  0  0  0  0  0  0
    0.0000    0.0000    0.0000 C   0  0  0  0  0  0  0  0  0  0  0  0
    0.0000    0.0000    0.0000 C   0  0  0  0  0  0  0  0  0  0  0  0
    0.0000    0.0000    0.0000 C   0  0  0  0  0  0  0  0  0  0  0  0
    0.0000    0.0000    0.0000 C   0  0  0  0  0  0  0  0  0  0  0  0
    0.0000    0.0000    0.0000 C   0  0  0  0  0  0  0  0  0  0  0  0
    0.0000    0.0000    0.0000 C   0  0  0  0  0  0  0  0  0  0  0  0
    0.0000    0.0000    0.0000 C   0  0  0  0  0  0  0  0  0  0  0  0
    0.0000    0.0000    0.0000 C   0  0  0  0  0  0  0  0  0  0  0  0
    0.0000    0.0000    0.0000 C   0  0  0  0  0  0  0  0  0  0  0  0
    0.0000    0.0000    0.0000 C   0  0  0  0  0  0  0  0  0  0  0  0
    0.0000    0.0000    0.0000 C   0  0  0  0  0  0  0  0  0  0  0  0
    0.0000    0.0000    0.0000 C   0  0  0  0  0  0  0  0  0  0  0  0
    0.0000    0.0000    0.0000 C   0  0  0  0  0  0  0  0  0  0  0  0
    0.0000    0.0000    0.0000 C   0  0  0  0  0  0  0  0  0  0  0  0
    0.0000    0.0000    0.0000 C   0  0  0  0  0  0  0  0  0  0  0  0
    0.0000    0.0000    0.0000 O   0  0  0  0  0  0  0  0  0  0  0  0
    0.0000    0.0000    0.0000 O   0  0  0  0  0  0  0  0  0  0  0  0
    0.0000    0.0000    0.0000 C   0  0  0  0  0  0  0  0  0  0  0  0
    0.0000    0.0000    0.0000 C   0  0  0  0  0  0  0  0  0  0  0  0
    0.0000    0.0000    0.0000 C   0  0  0  0  0  0  0  0  0  0  0  0
    0.0000    0.0000    0.0000 C   0  0  0  0  0  0  0  0  0  0  0  0
    0.0000    0.0000    0.0000 C   0  0  0  0  0  0  0  0  0  0  0  0
    0.0000    0.0000    0.0000 C   0  0  0  0  0  0  0  0  0  0  0  0
    0.0000    0.0000    0.0000 C   0  0  0  0  0  0  0  0  0  0  0  0
    0.0000    0.0000    0.0000 C   0  0  0  0  0  0  0  0  0  0  0  0
    0.0000    0.0000    0.0000 C   0  0  0  0  0  0  0  0  0  0  0  0
    0.0000    0.0000    0.0000 O   0  0  0  0  0  0  0  0  0  0  0  0
    0.0000    0.0000    0.0000 C   0  0  0  0  0  0  0  0  0  0  0  0
  1  2  1  0
  2  3  1  0
  3  4  1  0
  4  5  1  0
  5  6  1  0
  6  7  1  0
  7  8  2  0
  7  9  1  0
  9 10  1  0
 10 11  1  0
 11 12  2  0
 12 13  1  0
 13 14  2  0
 14 15  1  0
 15 16  2  0
  9 17  1  0
 17 18  1  0
 18 19  1  0
 19 20  2  0
 20 21  1  0
 21 22  2  0
 22 23  1  0
 23 24  2  0
 17 25  1  0
 25 26  2  0
 25 27  1  0
  4 28  1  0
 28 29  1  0
 29 30  1  0
 30 31  1  0
 30 32  1  0
 32 33  2  0
 33 34  1  0
 34 35  2  0
 35 36  1  0
 36 37  1  0
 36 38  2  0
 30  2  1  0
 16 11  1  0
 24 19  1  0
 38 32  1  0
M  END
>  <pIC50>  (475) 
7.6

>  <ChEMBL_ID>  (475) 
CHEMBL255555

>  <document_journal>  (475) 
Bioorg. Med. Chem. Lett.

>  <bao_endpoint>  (475) 
BAO_0000190

>  <potential_duplicate>  (475) 
False

>  <uo_units>  (475) 
UO_0000065

>  <canonical_smiles>  (475) 
C[C@H]1CN(CCC(=O)N(Cc2ccccc2)[C@@H](Cc3ccccc3)C(=O)O)CC[C@@]1(C)c4cccc(O)c4

>  <parent_molecule_chembl_id>  (475) 
CHEMBL255555

>  <assay_type>  (475) 
F

>  <src_id>  (475) 
1

>  <ligand_efficiency>  (475) 
None

>  <standard_flag>  (475) 
True

>  <molecule_chembl_id>  (475) 
CHEMBL255555

>  <target_organism>  (475) 
Homo sapiens

>  <standard_units>  (475) 
nM

>  <record_id>  (475) 
705467

>  <document_chembl_id>  (475) 
CHEMBL1144033

>  <bao_format>  (475) 
BAO_0000019

>  <data_validity_description>  (475) 
None

>  <activity_id>  (475) 
2119458

>  <standard_type>  (475) 
IC50

>  <target_chembl_id>  (475) 
CHEMBL233

>  <data_validity_comment>  (475) 
None

>  <published_value>  (475) 
25

>  <document_year>  (475) 
2008

>  <target_pref_name>  (475) 
Mu opioid receptor

>  <assay_chembl_id>  (475) 
CHEMBL933966

>  <standard_relation>  (475) 
=

>  <assay_description>  (475) 
Antagonist activity at human cloned mu opioid receptor assessed as inhibition of loperamide-stimulated [35S]GTP-gamma-S binding

>  <published_relation>  (475) 
=

>  <standard_value>  (475) 
25

>  <qudt_units>  (475) 
http://www.openphacts.org/units/Nanomolar

>  <target_tax_id>  (475) 
9606

>  <bao_label>  (475) 
assay format

>  <published_units>  (475) 
nM

>  <pchembl_value>  (475) 
7.6

>  <published_type>  (475) 
IC50

>  <activity_comment>  (475) 
None

$$$$

     RDKit          

 37 40  0  0  0  0  0  0  0  0999 V2000
    0.0000    0.0000    0.0000 C   0  0  0  0  0  0  0  0  0  0  0  0
    0.0000    0.0000    0.0000 C   0  0  0  0  0  0  0  0  0  0  0  0
    0.0000    0.0000    0.0000 C   0  0  0  0  0  0  0  0  0  0  0  0
    0.0000    0.0000    0.0000 N   0  0  0  0  0  0  0  0  0  0  0  0
    0.0000    0.0000    0.0000 C   0  0  0  0  0  0  0  0  0  0  0  0
    0.0000    0.0000    0.0000 C   0  0  0  0  0  0  0  0  0  0  0  0
    0.0000    0.0000    0.0000 C   0  0  0  0  0  0  0  0  0  0  0  0
    0.0000    0.0000    0.0000 O   0  0  0  0  0  0  0  0  0  0  0  0
    0.0000    0.0000    0.0000 N   0  0  0  0  0  0  0  0  0  0  0  0
    0.0000    0.0000    0.0000 C   0  0  0  0  0  0  0  0  0  0  0  0
    0.0000    0.0000    0.0000 C   0  0  0  0  0  0  0  0  0  0  0  0
    0.0000    0.0000    0.0000 C   0  0  0  0  0  0  0  0  0  0  0  0
    0.0000    0.0000    0.0000 C   0  0  0  0  0  0  0  0  0  0  0  0
    0.0000    0.0000    0.0000 C   0  0  0  0  0  0  0  0  0  0  0  0
    0.0000    0.0000    0.0000 C   0  0  0  0  0  0  0  0  0  0  0  0
    0.0000    0.0000    0.0000 C   0  0  0  0  0  0  0  0  0  0  0  0
    0.0000    0.0000    0.0000 C   0  0  0  0  0  0  0  0  0  0  0  0
    0.0000    0.0000    0.0000 C   0  0  0  0  0  0  0  0  0  0  0  0
    0.0000    0.0000    0.0000 O   0  0  0  0  0  0  0  0  0  0  0  0
    0.0000    0.0000    0.0000 O   0  0  0  0  0  0  0  0  0  0  0  0
    0.0000    0.0000    0.0000 C   0  0  0  0  0  0  0  0  0  0  0  0
    0.0000    0.0000    0.0000 C   0  0  0  0  0  0  0  0  0  0  0  0
    0.0000    0.0000    0.0000 C   0  0  0  0  0  0  0  0  0  0  0  0
    0.0000    0.0000    0.0000 C   0  0  0  0  0  0  0  0  0  0  0  0
    0.0000    0.0000    0.0000 C   0  0  0  0  0  0  0  0  0  0  0  0
    0.0000    0.0000    0.0000 C   0  0  0  0  0  0  0  0  0  0  0  0
    0.0000    0.0000    0.0000 C   0  0  0  0  0  0  0  0  0  0  0  0
    0.0000    0.0000    0.0000 C   0  0  0  0  0  0  0  0  0  0  0  0
    0.0000    0.0000    0.0000 C   0  0  0  0  0  0  0  0  0  0  0  0
    0.0000    0.0000    0.0000 C   0  0  0  0  0  0  0  0  0  0  0  0
    0.0000    0.0000    0.0000 C   0  0  0  0  0  0  0  0  0  0  0  0
    0.0000    0.0000    0.0000 C   0  0  0  0  0  0  0  0  0  0  0  0
    0.0000    0.0000    0.0000 C   0  0  0  0  0  0  0  0  0  0  0  0
    0.0000    0.0000    0.0000 C   0  0  0  0  0  0  0  0  0  0  0  0
    0.0000    0.0000    0.0000 C   0  0  0  0  0  0  0  0  0  0  0  0
    0.0000    0.0000    0.0000 O   0  0  0  0  0  0  0  0  0  0  0  0
    0.0000    0.0000    0.0000 C   0  0  0  0  0  0  0  0  0  0  0  0
  1  2  1  0
  2  3  1  0
  3  4  1  0
  4  5  1  0
  5  6  1  0
  6  7  1  0
  7  8  2  0
  7  9  1  0
  9 10  1  0
 10 11  1  0
 11 12  1  0
 12 13  2  0
 13 14  1  0
 14 15  2  0
 15 16  1  0
 16 17  2  0
 10 18  1  0
 18 19  2  0
 18 20  1  0
  9 21  1  0
 21 22  2  0
 22 23  1  0
 23 24  2  0
 24 25  1  0
 25 26  2  0
  4 27  1  0
 27 28  1  0
 28 29  1  0
 29 30  1  0
 29 31  1  0
 31 32  2  0
 32 33  1  0
 33 34  2  0
 34 35  1  0
 35 36  1  0
 35 37  2  0
 29  2  1  0
 17 12  1  0
 26 21  1  0
 37 31  1  0
M  END
>  <pIC50>  (476) 
7.16

>  <ChEMBL_ID>  (476) 
CHEMBL404583

>  <document_journal>  (476) 
Bioorg. Med. Chem. Lett.

>  <bao_endpoint>  (476) 
BAO_0000190

>  <potential_duplicate>  (476) 
False

>  <uo_units>  (476) 
UO_0000065

>  <canonical_smiles>  (476) 
C[C@H]1CN(CCC(=O)N([C@@H](Cc2ccccc2)C(=O)O)c3ccccc3)CC[C@@]1(C)c4cccc(O)c4

>  <parent_molecule_chembl_id>  (476) 
CHEMBL404583

>  <assay_type>  (476) 
F

>  <src_id>  (476) 
1

>  <ligand_efficiency>  (476) 
None

>  <standard_flag>  (476) 
True

>  <molecule_chembl_id>  (476) 
CHEMBL404583

>  <target_organism>  (476) 
Homo sapiens

>  <standard_units>  (476) 
nM

>  <record_id>  (476) 
705466

>  <document_chembl_id>  (476) 
CHEMBL1144033

>  <bao_format>  (476) 
BAO_0000019

>  <data_validity_description>  (476) 
None

>  <activity_id>  (476) 
2119459

>  <standard_type>  (476) 
IC50

>  <target_chembl_id>  (476) 
CHEMBL233

>  <data_validity_comment>  (476) 
None

>  <published_value>  (476) 
70

>  <document_year>  (476) 
2008

>  <target_pref_name>  (476) 
Mu opioid receptor

>  <assay_chembl_id>  (476) 
CHEMBL933966

>  <standard_relation>  (476) 
=

>  <assay_description>  (476) 
Antagonist activity at human cloned mu opioid receptor assessed as inhibition of loperamide-stimulated [35S]GTP-gamma-S binding

>  <published_relation>  (476) 
=

>  <standard_value>  (476) 
70

>  <qudt_units>  (476) 
http://www.openphacts.org/units/Nanomolar

>  <target_tax_id>  (476) 
9606

>  <bao_label>  (476) 
assay format

>  <published_units>  (476) 
nM

>  <pchembl_value>  (476) 
7.16

>  <published_type>  (476) 
IC50

>  <activity_comment>  (476) 
None

$$$$

     RDKit          

 35 38  0  0  0  0  0  0  0  0999 V2000
    0.0000    0.0000    0.0000 C   0  0  0  0  0  0  0  0  0  0  0  0
    0.0000    0.0000    0.0000 C   0  0  0  0  0  0  0  0  0  0  0  0
    0.0000    0.0000    0.0000 C   0  0  0  0  0  0  0  0  0  0  0  0
    0.0000    0.0000    0.0000 N   0  0  0  0  0  0  0  0  0  0  0  0
    0.0000    0.0000    0.0000 C   0  0  0  0  0  0  0  0  0  0  0  0
    0.0000    0.0000    0.0000 C   0  0  0  0  0  0  0  0  0  0  0  0
    0.0000    0.0000    0.0000 C   0  0  0  0  0  0  0  0  0  0  0  0
    0.0000    0.0000    0.0000 O   0  0  0  0  0  0  0  0  0  0  0  0
    0.0000    0.0000    0.0000 N   0  0  0  0  0  0  0  0  0  0  0  0
    0.0000    0.0000    0.0000 C   0  0  0  0  0  0  0  0  0  0  0  0
    0.0000    0.0000    0.0000 C   0  0  0  0  0  0  0  0  0  0  0  0
    0.0000    0.0000    0.0000 C   0  0  0  0  0  0  0  0  0  0  0  0
    0.0000    0.0000    0.0000 C   0  0  0  0  0  0  0  0  0  0  0  0
    0.0000    0.0000    0.0000 C   0  0  0  0  0  0  0  0  0  0  0  0
    0.0000    0.0000    0.0000 C   0  0  0  0  0  0  0  0  0  0  0  0
    0.0000    0.0000    0.0000 C   0  0  0  0  0  0  0  0  0  0  0  0
    0.0000    0.0000    0.0000 C   0  0  0  0  0  0  0  0  0  0  0  0
    0.0000    0.0000    0.0000 C   0  0  0  0  0  0  0  0  0  0  0  0
    0.0000    0.0000    0.0000 C   0  0  0  0  0  0  0  0  0  0  0  0
    0.0000    0.0000    0.0000 C   0  0  0  0  0  0  0  0  0  0  0  0
    0.0000    0.0000    0.0000 C   0  0  0  0  0  0  0  0  0  0  0  0
    0.0000    0.0000    0.0000 C   0  0  0  0  0  0  0  0  0  0  0  0
    0.0000    0.0000    0.0000 O   0  0  0  0  0  0  0  0  0  0  0  0
    0.0000    0.0000    0.0000 O   0  0  0  0  0  0  0  0  0  0  0  0
    0.0000    0.0000    0.0000 C   0  0  0  0  0  0  0  0  0  0  0  0
    0.0000    0.0000    0.0000 C   0  0  0  0  0  0  0  0  0  0  0  0
    0.0000    0.0000    0.0000 C   0  0  0  0  0  0  0  0  0  0  0  0
    0.0000    0.0000    0.0000 C   0  0  0  0  0  0  0  0  0  0  0  0
    0.0000    0.0000    0.0000 C   0  0  0  0  0  0  0  0  0  0  0  0
    0.0000    0.0000    0.0000 C   0  0  0  0  0  0  0  0  0  0  0  0
    0.0000    0.0000    0.0000 C   0  0  0  0  0  0  0  0  0  0  0  0
    0.0000    0.0000    0.0000 C   0  0  0  0  0  0  0  0  0  0  0  0
    0.0000    0.0000    0.0000 C   0  0  0  0  0  0  0  0  0  0  0  0
    0.0000    0.0000    0.0000 O   0  0  0  0  0  0  0  0  0  0  0  0
    0.0000    0.0000    0.0000 C   0  0  0  0  0  0  0  0  0  0  0  0
  1  2  1  0
  2  3  1  0
  3  4  1  0
  4  5  1  0
  5  6  1  0
  6  7  1  0
  7  8  2  0
  7  9  1  0
  9 10  1  0
 10 11  1  0
 11 12  1  0
 12 13  1  0
  9 14  1  0
 14 15  1  0
 15 16  1  0
 16 17  2  0
 17 18  1  0
 18 19  2  0
 19 20  1  0
 20 21  2  0
 14 22  1  0
 22 23  2  0
 22 24  1  0
  4 25  1  0
 25 26  1  0
 26 27  1  0
 27 28  1  0
 27 29  1  0
 29 30  2  0
 30 31  1  0
 31 32  2  0
 32 33  1  0
 33 34  1  0
 33 35  2  0
 27  2  1  0
 13 11  1  0
 21 16  1  0
 35 29  1  0
M  END
>  <pIC50>  (477) 
7.8

>  <ChEMBL_ID>  (477) 
CHEMBL258294

>  <document_journal>  (477) 
Bioorg. Med. Chem. Lett.

>  <bao_endpoint>  (477) 
BAO_0000190

>  <potential_duplicate>  (477) 
False

>  <uo_units>  (477) 
UO_0000065

>  <canonical_smiles>  (477) 
C[C@H]1CN(CCC(=O)N(CC2CC2)[C@@H](Cc3ccccc3)C(=O)O)CC[C@@]1(C)c4cccc(O)c4

>  <parent_molecule_chembl_id>  (477) 
CHEMBL258294

>  <assay_type>  (477) 
F

>  <src_id>  (477) 
1

>  <ligand_efficiency>  (477) 
None

>  <standard_flag>  (477) 
True

>  <molecule_chembl_id>  (477) 
CHEMBL258294

>  <target_organism>  (477) 
Homo sapiens

>  <standard_units>  (477) 
nM

>  <record_id>  (477) 
705465

>  <document_chembl_id>  (477) 
CHEMBL1144033

>  <bao_format>  (477) 
BAO_0000019

>  <data_validity_description>  (477) 
None

>  <activity_id>  (477) 
2119460

>  <standard_type>  (477) 
IC50

>  <target_chembl_id>  (477) 
CHEMBL233

>  <data_validity_comment>  (477) 
None

>  <published_value>  (477) 
16

>  <document_year>  (477) 
2008

>  <target_pref_name>  (477) 
Mu opioid receptor

>  <assay_chembl_id>  (477) 
CHEMBL933966

>  <standard_relation>  (477) 
=

>  <assay_description>  (477) 
Antagonist activity at human cloned mu opioid receptor assessed as inhibition of loperamide-stimulated [35S]GTP-gamma-S binding

>  <published_relation>  (477) 
=

>  <standard_value>  (477) 
16

>  <qudt_units>  (477) 
http://www.openphacts.org/units/Nanomolar

>  <target_tax_id>  (477) 
9606

>  <bao_label>  (477) 
assay format

>  <published_units>  (477) 
nM

>  <pchembl_value>  (477) 
7.8

>  <published_type>  (477) 
IC50

>  <activity_comment>  (477) 
None

$$$$

     RDKit          

 35 37  0  0  0  0  0  0  0  0999 V2000
    0.0000    0.0000    0.0000 C   0  0  0  0  0  0  0  0  0  0  0  0
    0.0000    0.0000    0.0000 C   0  0  0  0  0  0  0  0  0  0  0  0
    0.0000    0.0000    0.0000 C   0  0  0  0  0  0  0  0  0  0  0  0
    0.0000    0.0000    0.0000 C   0  0  0  0  0  0  0  0  0  0  0  0
    0.0000    0.0000    0.0000 N   0  0  0  0  0  0  0  0  0  0  0  0
    0.0000    0.0000    0.0000 C   0  0  0  0  0  0  0  0  0  0  0  0
    0.0000    0.0000    0.0000 C   0  0  0  0  0  0  0  0  0  0  0  0
    0.0000    0.0000    0.0000 C   0  0  0  0  0  0  0  0  0  0  0  0
    0.0000    0.0000    0.0000 C   0  0  0  0  0  0  0  0  0  0  0  0
    0.0000    0.0000    0.0000 C   0  0  0  0  0  0  0  0  0  0  0  0
    0.0000    0.0000    0.0000 C   0  0  0  0  0  0  0  0  0  0  0  0
    0.0000    0.0000    0.0000 C   0  0  0  0  0  0  0  0  0  0  0  0
    0.0000    0.0000    0.0000 C   0  0  0  0  0  0  0  0  0  0  0  0
    0.0000    0.0000    0.0000 C   0  0  0  0  0  0  0  0  0  0  0  0
    0.0000    0.0000    0.0000 O   0  0  0  0  0  0  0  0  0  0  0  0
    0.0000    0.0000    0.0000 O   0  0  0  0  0  0  0  0  0  0  0  0
    0.0000    0.0000    0.0000 C   0  0  0  0  0  0  0  0  0  0  0  0
    0.0000    0.0000    0.0000 O   0  0  0  0  0  0  0  0  0  0  0  0
    0.0000    0.0000    0.0000 C   0  0  0  0  0  0  0  0  0  0  0  0
    0.0000    0.0000    0.0000 C   0  0  0  0  0  0  0  0  0  0  0  0
    0.0000    0.0000    0.0000 N   0  0  0  0  0  0  0  0  0  0  0  0
    0.0000    0.0000    0.0000 C   0  0  0  0  0  0  0  0  0  0  0  0
    0.0000    0.0000    0.0000 C   0  0  0  0  0  0  0  0  0  0  0  0
    0.0000    0.0000    0.0000 C   0  0  0  0  0  0  0  0  0  0  0  0
    0.0000    0.0000    0.0000 C   0  0  0  0  0  0  0  0  0  0  0  0
    0.0000    0.0000    0.0000 C   0  0  0  0  0  0  0  0  0  0  0  0
    0.0000    0.0000    0.0000 C   0  0  0  0  0  0  0  0  0  0  0  0
    0.0000    0.0000    0.0000 C   0  0  0  0  0  0  0  0  0  0  0  0
    0.0000    0.0000    0.0000 C   0  0  0  0  0  0  0  0  0  0  0  0
    0.0000    0.0000    0.0000 C   0  0  0  0  0  0  0  0  0  0  0  0
    0.0000    0.0000    0.0000 C   0  0  0  0  0  0  0  0  0  0  0  0
    0.0000    0.0000    0.0000 C   0  0  0  0  0  0  0  0  0  0  0  0
    0.0000    0.0000    0.0000 C   0  0  0  0  0  0  0  0  0  0  0  0
    0.0000    0.0000    0.0000 O   0  0  0  0  0  0  0  0  0  0  0  0
    0.0000    0.0000    0.0000 C   0  0  0  0  0  0  0  0  0  0  0  0
  1  2  1  0
  2  3  1  0
  2  4  1  0
  4  5  1  0
  5  6  1  0
  6  7  1  0
  7  8  1  0
  8  9  2  0
  9 10  1  0
 10 11  2  0
 11 12  1  0
 12 13  2  0
  6 14  1  0
 14 15  2  0
 14 16  1  0
  5 17  1  0
 17 18  2  0
 17 19  1  0
 19 20  1  0
 20 21  1  0
 21 22  1  0
 22 23  1  0
 23 24  1  0
 24 25  1  0
 24 26  1  0
 26 27  1  0
 26 28  1  0
 24 29  1  0
 29 30  2  0
 30 31  1  0
 31 32  2  0
 32 33  1  0
 33 34  1  0
 33 35  2  0
 13  8  1  0
 28 21  1  0
 35 29  1  0
M  END
>  <pIC50>  (478) 
7.37

>  <ChEMBL_ID>  (478) 
CHEMBL258115

>  <document_journal>  (478) 
Bioorg. Med. Chem. Lett.

>  <bao_endpoint>  (478) 
BAO_0000190

>  <potential_duplicate>  (478) 
False

>  <uo_units>  (478) 
UO_0000065

>  <canonical_smiles>  (478) 
CC(C)CN([C@@H](Cc1ccccc1)C(=O)O)C(=O)CCN2CC[C@](C)([C@@H](C)C2)c3cccc(O)c3

>  <parent_molecule_chembl_id>  (478) 
CHEMBL258115

>  <assay_type>  (478) 
F

>  <src_id>  (478) 
1

>  <ligand_efficiency>  (478) 
None

>  <standard_flag>  (478) 
True

>  <molecule_chembl_id>  (478) 
CHEMBL258115

>  <target_organism>  (478) 
Homo sapiens

>  <standard_units>  (478) 
nM

>  <record_id>  (478) 
705464

>  <document_chembl_id>  (478) 
CHEMBL1144033

>  <bao_format>  (478) 
BAO_0000019

>  <data_validity_description>  (478) 
None

>  <activity_id>  (478) 
2119461

>  <standard_type>  (478) 
IC50

>  <target_chembl_id>  (478) 
CHEMBL233

>  <data_validity_comment>  (478) 
None

>  <published_value>  (478) 
43

>  <document_year>  (478) 
2008

>  <target_pref_name>  (478) 
Mu opioid receptor

>  <assay_chembl_id>  (478) 
CHEMBL933966

>  <standard_relation>  (478) 
=

>  <assay_description>  (478) 
Antagonist activity at human cloned mu opioid receptor assessed as inhibition of loperamide-stimulated [35S]GTP-gamma-S binding

>  <published_relation>  (478) 
=

>  <standard_value>  (478) 
43

>  <qudt_units>  (478) 
http://www.openphacts.org/units/Nanomolar

>  <target_tax_id>  (478) 
9606

>  <bao_label>  (478) 
assay format

>  <published_units>  (478) 
nM

>  <pchembl_value>  (478) 
7.37

>  <published_type>  (478) 
IC50

>  <activity_comment>  (478) 
None

$$$$

     RDKit          

 33 35  0  0  0  0  0  0  0  0999 V2000
    0.0000    0.0000    0.0000 C   0  0  0  0  0  0  0  0  0  0  0  0
    0.0000    0.0000    0.0000 C   0  0  0  0  0  0  0  0  0  0  0  0
    0.0000    0.0000    0.0000 N   0  0  0  0  0  0  0  0  0  0  0  0
    0.0000    0.0000    0.0000 C   0  0  0  0  0  0  0  0  0  0  0  0
    0.0000    0.0000    0.0000 C   0  0  0  0  0  0  0  0  0  0  0  0
    0.0000    0.0000    0.0000 C   0  0  0  0  0  0  0  0  0  0  0  0
    0.0000    0.0000    0.0000 C   0  0  0  0  0  0  0  0  0  0  0  0
    0.0000    0.0000    0.0000 C   0  0  0  0  0  0  0  0  0  0  0  0
    0.0000    0.0000    0.0000 C   0  0  0  0  0  0  0  0  0  0  0  0
    0.0000    0.0000    0.0000 C   0  0  0  0  0  0  0  0  0  0  0  0
    0.0000    0.0000    0.0000 C   0  0  0  0  0  0  0  0  0  0  0  0
    0.0000    0.0000    0.0000 C   0  0  0  0  0  0  0  0  0  0  0  0
    0.0000    0.0000    0.0000 O   0  0  0  0  0  0  0  0  0  0  0  0
    0.0000    0.0000    0.0000 O   0  0  0  0  0  0  0  0  0  0  0  0
    0.0000    0.0000    0.0000 C   0  0  0  0  0  0  0  0  0  0  0  0
    0.0000    0.0000    0.0000 O   0  0  0  0  0  0  0  0  0  0  0  0
    0.0000    0.0000    0.0000 C   0  0  0  0  0  0  0  0  0  0  0  0
    0.0000    0.0000    0.0000 C   0  0  0  0  0  0  0  0  0  0  0  0
    0.0000    0.0000    0.0000 N   0  0  0  0  0  0  0  0  0  0  0  0
    0.0000    0.0000    0.0000 C   0  0  0  0  0  0  0  0  0  0  0  0
    0.0000    0.0000    0.0000 C   0  0  0  0  0  0  0  0  0  0  0  0
    0.0000    0.0000    0.0000 C   0  0  0  0  0  0  0  0  0  0  0  0
    0.0000    0.0000    0.0000 C   0  0  0  0  0  0  0  0  0  0  0  0
    0.0000    0.0000    0.0000 C   0  0  0  0  0  0  0  0  0  0  0  0
    0.0000    0.0000    0.0000 C   0  0  0  0  0  0  0  0  0  0  0  0
    0.0000    0.0000    0.0000 C   0  0  0  0  0  0  0  0  0  0  0  0
    0.0000    0.0000    0.0000 C   0  0  0  0  0  0  0  0  0  0  0  0
    0.0000    0.0000    0.0000 C   0  0  0  0  0  0  0  0  0  0  0  0
    0.0000    0.0000    0.0000 C   0  0  0  0  0  0  0  0  0  0  0  0
    0.0000    0.0000    0.0000 C   0  0  0  0  0  0  0  0  0  0  0  0
    0.0000    0.0000    0.0000 C   0  0  0  0  0  0  0  0  0  0  0  0
    0.0000    0.0000    0.0000 O   0  0  0  0  0  0  0  0  0  0  0  0
    0.0000    0.0000    0.0000 C   0  0  0  0  0  0  0  0  0  0  0  0
  1  2  1  0
  2  3  1  0
  3  4  1  0
  4  5  1  0
  5  6  1  0
  6  7  2  0
  7  8  1  0
  8  9  2  0
  9 10  1  0
 10 11  2  0
  4 12  1  0
 12 13  2  0
 12 14  1  0
  3 15  1  0
 15 16  2  0
 15 17  1  0
 17 18  1  0
 18 19  1  0
 19 20  1  0
 20 21  1  0
 21 22  1  0
 22 23  1  0
 22 24  1  0
 24 25  1  0
 24 26  1  0
 22 27  1  0
 27 28  2  0
 28 29  1  0
 29 30  2  0
 30 31  1  0
 31 32  1  0
 31 33  2  0
 11  6  1  0
 26 19  1  0
 33 27  1  0
M  END
>  <pIC50>  (479) 
6.96

>  <ChEMBL_ID>  (479) 
CHEMBL403324

>  <document_journal>  (479) 
Bioorg. Med. Chem. Lett.

>  <bao_endpoint>  (479) 
BAO_0000190

>  <potential_duplicate>  (479) 
False

>  <uo_units>  (479) 
UO_0000065

>  <canonical_smiles>  (479) 
CCN([C@@H](Cc1ccccc1)C(=O)O)C(=O)CCN2CC[C@](C)([C@@H](C)C2)c3cccc(O)c3

>  <parent_molecule_chembl_id>  (479) 
CHEMBL403324

>  <assay_type>  (479) 
F

>  <src_id>  (479) 
1

>  <ligand_efficiency>  (479) 
None

>  <standard_flag>  (479) 
True

>  <molecule_chembl_id>  (479) 
CHEMBL403324

>  <target_organism>  (479) 
Homo sapiens

>  <standard_units>  (479) 
nM

>  <record_id>  (479) 
705463

>  <document_chembl_id>  (479) 
CHEMBL1144033

>  <bao_format>  (479) 
BAO_0000019

>  <data_validity_description>  (479) 
None

>  <activity_id>  (479) 
2119462

>  <standard_type>  (479) 
IC50

>  <target_chembl_id>  (479) 
CHEMBL233

>  <data_validity_comment>  (479) 
None

>  <published_value>  (479) 
110

>  <document_year>  (479) 
2008

>  <target_pref_name>  (479) 
Mu opioid receptor

>  <assay_chembl_id>  (479) 
CHEMBL933966

>  <standard_relation>  (479) 
=

>  <assay_description>  (479) 
Antagonist activity at human cloned mu opioid receptor assessed as inhibition of loperamide-stimulated [35S]GTP-gamma-S binding

>  <published_relation>  (479) 
=

>  <standard_value>  (479) 
110

>  <qudt_units>  (479) 
http://www.openphacts.org/units/Nanomolar

>  <target_tax_id>  (479) 
9606

>  <bao_label>  (479) 
assay format

>  <published_units>  (479) 
nM

>  <pchembl_value>  (479) 
6.96

>  <published_type>  (479) 
IC50

>  <activity_comment>  (479) 
None

$$$$

     RDKit          

 32 34  0  0  0  0  0  0  0  0999 V2000
    0.0000    0.0000    0.0000 C   0  0  0  0  0  0  0  0  0  0  0  0
    0.0000    0.0000    0.0000 C   0  0  0  0  0  0  0  0  0  0  0  0
    0.0000    0.0000    0.0000 C   0  0  0  0  0  0  0  0  0  0  0  0
    0.0000    0.0000    0.0000 N   0  0  0  0  0  0  0  0  0  0  0  0
    0.0000    0.0000    0.0000 C   0  0  0  0  0  0  0  0  0  0  0  0
    0.0000    0.0000    0.0000 C   0  0  0  0  0  0  0  0  0  0  0  0
    0.0000    0.0000    0.0000 C   0  0  0  0  0  0  0  0  0  0  0  0
    0.0000    0.0000    0.0000 O   0  0  0  0  0  0  0  0  0  0  0  0
    0.0000    0.0000    0.0000 N   0  0  0  0  0  0  0  0  0  0  0  0
    0.0000    0.0000    0.0000 C   0  0  0  0  0  0  0  0  0  0  0  0
    0.0000    0.0000    0.0000 C   0  0  0  0  0  0  0  0  0  0  0  0
    0.0000    0.0000    0.0000 C   0  0  0  0  0  0  0  0  0  0  0  0
    0.0000    0.0000    0.0000 C   0  0  0  0  0  0  0  0  0  0  0  0
    0.0000    0.0000    0.0000 C   0  0  0  0  0  0  0  0  0  0  0  0
    0.0000    0.0000    0.0000 C   0  0  0  0  0  0  0  0  0  0  0  0
    0.0000    0.0000    0.0000 C   0  0  0  0  0  0  0  0  0  0  0  0
    0.0000    0.0000    0.0000 C   0  0  0  0  0  0  0  0  0  0  0  0
    0.0000    0.0000    0.0000 C   0  0  0  0  0  0  0  0  0  0  0  0
    0.0000    0.0000    0.0000 C   0  0  0  0  0  0  0  0  0  0  0  0
    0.0000    0.0000    0.0000 O   0  0  0  0  0  0  0  0  0  0  0  0
    0.0000    0.0000    0.0000 O   0  0  0  0  0  0  0  0  0  0  0  0
    0.0000    0.0000    0.0000 C   0  0  0  0  0  0  0  0  0  0  0  0
    0.0000    0.0000    0.0000 C   0  0  0  0  0  0  0  0  0  0  0  0
    0.0000    0.0000    0.0000 C   0  0  0  0  0  0  0  0  0  0  0  0
    0.0000    0.0000    0.0000 C   0  0  0  0  0  0  0  0  0  0  0  0
    0.0000    0.0000    0.0000 C   0  0  0  0  0  0  0  0  0  0  0  0
    0.0000    0.0000    0.0000 C   0  0  0  0  0  0  0  0  0  0  0  0
    0.0000    0.0000    0.0000 C   0  0  0  0  0  0  0  0  0  0  0  0
    0.0000    0.0000    0.0000 C   0  0  0  0  0  0  0  0  0  0  0  0
    0.0000    0.0000    0.0000 C   0  0  0  0  0  0  0  0  0  0  0  0
    0.0000    0.0000    0.0000 O   0  0  0  0  0  0  0  0  0  0  0  0
    0.0000    0.0000    0.0000 C   0  0  0  0  0  0  0  0  0  0  0  0
  1  2  1  0
  2  3  1  0
  3  4  1  0
  4  5  1  0
  5  6  1  0
  6  7  1  0
  7  8  2  0
  7  9  1  0
  9 10  1  0
  9 11  1  0
 11 12  1  0
 12 13  1  0
 13 14  2  0
 14 15  1  0
 15 16  2  0
 16 17  1  0
 17 18  2  0
 11 19  1  0
 19 20  2  0
 19 21  1  0
  4 22  1  0
 22 23  1  0
 23 24  1  0
 24 25  1  0
 24 26  1  0
 26 27  2  0
 27 28  1  0
 28 29  2  0
 29 30  1  0
 30 31  1  0
 30 32  2  0
 24  2  1  0
 18 13  1  0
 32 26  1  0
M  END
>  <pIC50>  (480) 
7.85

>  <ChEMBL_ID>  (480) 
CHEMBL256834

>  <document_journal>  (480) 
Bioorg. Med. Chem. Lett.

>  <bao_endpoint>  (480) 
BAO_0000190

>  <potential_duplicate>  (480) 
False

>  <uo_units>  (480) 
UO_0000065

>  <canonical_smiles>  (480) 
C[C@H]1CN(CCC(=O)N(C)[C@@H](Cc2ccccc2)C(=O)O)CC[C@@]1(C)c3cccc(O)c3

>  <parent_molecule_chembl_id>  (480) 
CHEMBL256834

>  <assay_type>  (480) 
F

>  <src_id>  (480) 
1

>  <ligand_efficiency>  (480) 
None

>  <standard_flag>  (480) 
True

>  <molecule_chembl_id>  (480) 
CHEMBL256834

>  <target_organism>  (480) 
Homo sapiens

>  <standard_units>  (480) 
nM

>  <record_id>  (480) 
705462

>  <document_chembl_id>  (480) 
CHEMBL1144033

>  <bao_format>  (480) 
BAO_0000019

>  <data_validity_description>  (480) 
None

>  <activity_id>  (480) 
2119463

>  <standard_type>  (480) 
IC50

>  <target_chembl_id>  (480) 
CHEMBL233

>  <data_validity_comment>  (480) 
None

>  <published_value>  (480) 
14

>  <document_year>  (480) 
2008

>  <target_pref_name>  (480) 
Mu opioid receptor

>  <assay_chembl_id>  (480) 
CHEMBL933966

>  <standard_relation>  (480) 
=

>  <assay_description>  (480) 
Antagonist activity at human cloned mu opioid receptor assessed as inhibition of loperamide-stimulated [35S]GTP-gamma-S binding

>  <published_relation>  (480) 
=

>  <standard_value>  (480) 
14

>  <qudt_units>  (480) 
http://www.openphacts.org/units/Nanomolar

>  <target_tax_id>  (480) 
9606

>  <bao_label>  (480) 
assay format

>  <published_units>  (480) 
nM

>  <pchembl_value>  (480) 
7.85

>  <published_type>  (480) 
IC50

>  <activity_comment>  (480) 
None

$$$$

     RDKit          

 32 34  0  0  0  0  0  0  0  0999 V2000
    0.0000    0.0000    0.0000 C   0  0  0  0  0  0  0  0  0  0  0  0
    0.0000    0.0000    0.0000 C   0  0  0  0  0  0  0  0  0  0  0  0
    0.0000    0.0000    0.0000 C   0  0  0  0  0  0  0  0  0  0  0  0
    0.0000    0.0000    0.0000 N   0  0  0  0  0  0  0  0  0  0  0  0
    0.0000    0.0000    0.0000 C   0  0  0  0  0  0  0  0  0  0  0  0
    0.0000    0.0000    0.0000 C   0  0  0  0  0  0  0  0  0  0  0  0
    0.0000    0.0000    0.0000 C   0  0  0  0  0  0  0  0  0  0  0  0
    0.0000    0.0000    0.0000 O   0  0  0  0  0  0  0  0  0  0  0  0
    0.0000    0.0000    0.0000 N   0  0  0  0  0  0  0  0  0  0  0  0
    0.0000    0.0000    0.0000 C   0  0  0  0  0  0  0  0  0  0  0  0
    0.0000    0.0000    0.0000 C   0  0  0  0  0  0  0  0  0  0  0  0
    0.0000    0.0000    0.0000 C   0  0  0  0  0  0  0  0  0  0  0  0
    0.0000    0.0000    0.0000 C   0  0  0  0  0  0  0  0  0  0  0  0
    0.0000    0.0000    0.0000 C   0  0  0  0  0  0  0  0  0  0  0  0
    0.0000    0.0000    0.0000 C   0  0  0  0  0  0  0  0  0  0  0  0
    0.0000    0.0000    0.0000 C   0  0  0  0  0  0  0  0  0  0  0  0
    0.0000    0.0000    0.0000 C   0  0  0  0  0  0  0  0  0  0  0  0
    0.0000    0.0000    0.0000 C   0  0  0  0  0  0  0  0  0  0  0  0
    0.0000    0.0000    0.0000 C   0  0  0  0  0  0  0  0  0  0  0  0
    0.0000    0.0000    0.0000 O   0  0  0  0  0  0  0  0  0  0  0  0
    0.0000    0.0000    0.0000 O   0  0  0  0  0  0  0  0  0  0  0  0
    0.0000    0.0000    0.0000 C   0  0  0  0  0  0  0  0  0  0  0  0
    0.0000    0.0000    0.0000 C   0  0  0  0  0  0  0  0  0  0  0  0
    0.0000    0.0000    0.0000 C   0  0  0  0  0  0  0  0  0  0  0  0
    0.0000    0.0000    0.0000 C   0  0  0  0  0  0  0  0  0  0  0  0
    0.0000    0.0000    0.0000 C   0  0  0  0  0  0  0  0  0  0  0  0
    0.0000    0.0000    0.0000 C   0  0  0  0  0  0  0  0  0  0  0  0
    0.0000    0.0000    0.0000 C   0  0  0  0  0  0  0  0  0  0  0  0
    0.0000    0.0000    0.0000 C   0  0  0  0  0  0  0  0  0  0  0  0
    0.0000    0.0000    0.0000 C   0  0  0  0  0  0  0  0  0  0  0  0
    0.0000    0.0000    0.0000 O   0  0  0  0  0  0  0  0  0  0  0  0
    0.0000    0.0000    0.0000 C   0  0  0  0  0  0  0  0  0  0  0  0
  1  2  1  0
  2  3  1  0
  3  4  1  0
  4  5  1  0
  5  6  1  0
  6  7  1  0
  7  8  2  0
  7  9  1  0
  9 10  1  0
 10 11  1  0
 11 12  1  0
 12 13  1  0
 13 14  2  0
 14 15  1  0
 15 16  2  0
 16 17  1  0
 17 18  2  0
 10 19  1  0
 19 20  2  0
 19 21  1  0
  4 22  1  0
 22 23  1  0
 23 24  1  0
 24 25  1  0
 24 26  1  0
 26 27  2  0
 27 28  1  0
 28 29  2  0
 29 30  1  0
 30 31  1  0
 30 32  2  0
 24  2  1  0
 18 13  1  0
 32 26  1  0
M  END
>  <pIC50>  (481) 
8.0

>  <ChEMBL_ID>  (481) 
CHEMBL403325

>  <document_journal>  (481) 
Bioorg. Med. Chem. Lett.

>  <bao_endpoint>  (481) 
BAO_0000190

>  <potential_duplicate>  (481) 
False

>  <uo_units>  (481) 
UO_0000065

>  <canonical_smiles>  (481) 
C[C@H]1CN(CCC(=O)N[C@@H](CCc2ccccc2)C(=O)O)CC[C@@]1(C)c3cccc(O)c3

>  <parent_molecule_chembl_id>  (481) 
CHEMBL403325

>  <assay_type>  (481) 
F

>  <src_id>  (481) 
1

>  <ligand_efficiency>  (481) 
None

>  <standard_flag>  (481) 
True

>  <molecule_chembl_id>  (481) 
CHEMBL403325

>  <target_organism>  (481) 
Homo sapiens

>  <standard_units>  (481) 
nM

>  <record_id>  (481) 
705461

>  <document_chembl_id>  (481) 
CHEMBL1144033

>  <bao_format>  (481) 
BAO_0000019

>  <data_validity_description>  (481) 
None

>  <activity_id>  (481) 
2119464

>  <standard_type>  (481) 
IC50

>  <target_chembl_id>  (481) 
CHEMBL233

>  <data_validity_comment>  (481) 
None

>  <published_value>  (481) 
10

>  <document_year>  (481) 
2008

>  <target_pref_name>  (481) 
Mu opioid receptor

>  <assay_chembl_id>  (481) 
CHEMBL933966

>  <standard_relation>  (481) 
=

>  <assay_description>  (481) 
Antagonist activity at human cloned mu opioid receptor assessed as inhibition of loperamide-stimulated [35S]GTP-gamma-S binding

>  <published_relation>  (481) 
=

>  <standard_value>  (481) 
10

>  <qudt_units>  (481) 
http://www.openphacts.org/units/Nanomolar

>  <target_tax_id>  (481) 
9606

>  <bao_label>  (481) 
assay format

>  <published_units>  (481) 
nM

>  <pchembl_value>  (481) 
8

>  <published_type>  (481) 
IC50

>  <activity_comment>  (481) 
None

$$$$

     RDKit          

 37 40  0  0  0  0  0  0  0  0999 V2000
    0.0000    0.0000    0.0000 C   0  0  0  0  0  0  0  0  0  0  0  0
    0.0000    0.0000    0.0000 C   0  0  0  0  0  0  0  0  0  0  0  0
    0.0000    0.0000    0.0000 C   0  0  0  0  0  0  0  0  0  0  0  0
    0.0000    0.0000    0.0000 N   0  0  0  0  0  0  0  0  0  0  0  0
    0.0000    0.0000    0.0000 C   0  0  0  0  0  0  0  0  0  0  0  0
    0.0000    0.0000    0.0000 C   0  0  0  0  0  0  0  0  0  0  0  0
    0.0000    0.0000    0.0000 C   0  0  0  0  0  0  0  0  0  0  0  0
    0.0000    0.0000    0.0000 O   0  0  0  0  0  0  0  0  0  0  0  0
    0.0000    0.0000    0.0000 N   0  0  0  0  0  0  0  0  0  0  0  0
    0.0000    0.0000    0.0000 C   0  0  0  0  0  0  0  0  0  0  0  0
    0.0000    0.0000    0.0000 C   0  0  0  0  0  0  0  0  0  0  0  0
    0.0000    0.0000    0.0000 C   0  0  0  0  0  0  0  0  0  0  0  0
    0.0000    0.0000    0.0000 C   0  0  0  0  0  0  0  0  0  0  0  0
    0.0000    0.0000    0.0000 C   0  0  0  0  0  0  0  0  0  0  0  0
    0.0000    0.0000    0.0000 C   0  0  0  0  0  0  0  0  0  0  0  0
    0.0000    0.0000    0.0000 C   0  0  0  0  0  0  0  0  0  0  0  0
    0.0000    0.0000    0.0000 C   0  0  0  0  0  0  0  0  0  0  0  0
    0.0000    0.0000    0.0000 C   0  0  0  0  0  0  0  0  0  0  0  0
    0.0000    0.0000    0.0000 C   0  0  0  0  0  0  0  0  0  0  0  0
    0.0000    0.0000    0.0000 C   0  0  0  0  0  0  0  0  0  0  0  0
    0.0000    0.0000    0.0000 C   0  0  0  0  0  0  0  0  0  0  0  0
    0.0000    0.0000    0.0000 C   0  0  0  0  0  0  0  0  0  0  0  0
    0.0000    0.0000    0.0000 C   0  0  0  0  0  0  0  0  0  0  0  0
    0.0000    0.0000    0.0000 C   0  0  0  0  0  0  0  0  0  0  0  0
    0.0000    0.0000    0.0000 O   0  0  0  0  0  0  0  0  0  0  0  0
    0.0000    0.0000    0.0000 O   0  0  0  0  0  0  0  0  0  0  0  0
    0.0000    0.0000    0.0000 C   0  0  0  0  0  0  0  0  0  0  0  0
    0.0000    0.0000    0.0000 C   0  0  0  0  0  0  0  0  0  0  0  0
    0.0000    0.0000    0.0000 C   0  0  0  0  0  0  0  0  0  0  0  0
    0.0000    0.0000    0.0000 C   0  0  0  0  0  0  0  0  0  0  0  0
    0.0000    0.0000    0.0000 C   0  0  0  0  0  0  0  0  0  0  0  0
    0.0000    0.0000    0.0000 C   0  0  0  0  0  0  0  0  0  0  0  0
    0.0000    0.0000    0.0000 C   0  0  0  0  0  0  0  0  0  0  0  0
    0.0000    0.0000    0.0000 C   0  0  0  0  0  0  0  0  0  0  0  0
    0.0000    0.0000    0.0000 C   0  0  0  0  0  0  0  0  0  0  0  0
    0.0000    0.0000    0.0000 O   0  0  0  0  0  0  0  0  0  0  0  0
    0.0000    0.0000    0.0000 C   0  0  0  0  0  0  0  0  0  0  0  0
  1  2  1  0
  2  3  1  0
  3  4  1  0
  4  5  1  0
  5  6  1  0
  6  7  1  0
  7  8  2  0
  7  9  1  0
  9 10  1  0
 10 11  1  0
 11 12  1  0
 12 13  2  0
 13 14  1  0
 14 15  2  0
 15 16  1  0
 16 17  2  0
 15 18  1  0
 18 19  2  0
 19 20  1  0
 20 21  2  0
 21 22  1  0
 22 23  2  0
 10 24  1  0
 24 25  2  0
 24 26  1  0
  4 27  1  0
 27 28  1  0
 28 29  1  0
 29 30  1  0
 29 31  1  0
 31 32  2  0
 32 33  1  0
 33 34  2  0
 34 35  1  0
 35 36  1  0
 35 37  2  0
 29  2  1  0
 17 12  1  0
 23 18  1  0
 37 31  1  0
M  END
>  <pIC50>  (482) 
7.55

>  <ChEMBL_ID>  (482) 
CHEMBL441899

>  <document_journal>  (482) 
Bioorg. Med. Chem. Lett.

>  <bao_endpoint>  (482) 
BAO_0000190

>  <potential_duplicate>  (482) 
False

>  <uo_units>  (482) 
UO_0000065

>  <canonical_smiles>  (482) 
C[C@H]1CN(CCC(=O)N[C@@H](Cc2ccc(cc2)c3ccccc3)C(=O)O)CC[C@@]1(C)c4cccc(O)c4

>  <parent_molecule_chembl_id>  (482) 
CHEMBL441899

>  <assay_type>  (482) 
F

>  <src_id>  (482) 
1

>  <ligand_efficiency>  (482) 
None

>  <standard_flag>  (482) 
True

>  <molecule_chembl_id>  (482) 
CHEMBL441899

>  <target_organism>  (482) 
Homo sapiens

>  <standard_units>  (482) 
nM

>  <record_id>  (482) 
705460

>  <document_chembl_id>  (482) 
CHEMBL1144033

>  <bao_format>  (482) 
BAO_0000019

>  <data_validity_description>  (482) 
None

>  <activity_id>  (482) 
2119465

>  <standard_type>  (482) 
IC50

>  <target_chembl_id>  (482) 
CHEMBL233

>  <data_validity_comment>  (482) 
None

>  <published_value>  (482) 
28

>  <document_year>  (482) 
2008

>  <target_pref_name>  (482) 
Mu opioid receptor

>  <assay_chembl_id>  (482) 
CHEMBL933966

>  <standard_relation>  (482) 
=

>  <assay_description>  (482) 
Antagonist activity at human cloned mu opioid receptor assessed as inhibition of loperamide-stimulated [35S]GTP-gamma-S binding

>  <published_relation>  (482) 
=

>  <standard_value>  (482) 
28

>  <qudt_units>  (482) 
http://www.openphacts.org/units/Nanomolar

>  <target_tax_id>  (482) 
9606

>  <bao_label>  (482) 
assay format

>  <published_units>  (482) 
nM

>  <pchembl_value>  (482) 
7.55

>  <published_type>  (482) 
IC50

>  <activity_comment>  (482) 
None

$$$$

     RDKit          

 31 33  0  0  0  0  0  0  0  0999 V2000
    0.0000    0.0000    0.0000 C   0  0  0  0  0  0  0  0  0  0  0  0
    0.0000    0.0000    0.0000 C   0  0  0  0  0  0  0  0  0  0  0  0
    0.0000    0.0000    0.0000 C   0  0  0  0  0  0  0  0  0  0  0  0
    0.0000    0.0000    0.0000 N   0  0  0  0  0  0  0  0  0  0  0  0
    0.0000    0.0000    0.0000 C   0  0  0  0  0  0  0  0  0  0  0  0
    0.0000    0.0000    0.0000 C   0  0  0  0  0  0  0  0  0  0  0  0
    0.0000    0.0000    0.0000 C   0  0  0  0  0  0  0  0  0  0  0  0
    0.0000    0.0000    0.0000 O   0  0  0  0  0  0  0  0  0  0  0  0
    0.0000    0.0000    0.0000 N   0  0  0  0  0  0  0  0  0  0  0  0
    0.0000    0.0000    0.0000 C   0  0  0  0  0  0  0  0  0  0  0  0
    0.0000    0.0000    0.0000 C   0  0  0  0  0  0  0  0  0  0  0  0
    0.0000    0.0000    0.0000 C   0  0  0  0  0  0  0  0  0  0  0  0
    0.0000    0.0000    0.0000 C   0  0  0  0  0  0  0  0  0  0  0  0
    0.0000    0.0000    0.0000 C   0  0  0  0  0  0  0  0  0  0  0  0
    0.0000    0.0000    0.0000 C   0  0  0  0  0  0  0  0  0  0  0  0
    0.0000    0.0000    0.0000 C   0  0  0  0  0  0  0  0  0  0  0  0
    0.0000    0.0000    0.0000 C   0  0  0  0  0  0  0  0  0  0  0  0
    0.0000    0.0000    0.0000 C   0  0  0  0  0  0  0  0  0  0  0  0
    0.0000    0.0000    0.0000 O   0  0  0  0  0  0  0  0  0  0  0  0
    0.0000    0.0000    0.0000 O   0  0  0  0  0  0  0  0  0  0  0  0
    0.0000    0.0000    0.0000 C   0  0  0  0  0  0  0  0  0  0  0  0
    0.0000    0.0000    0.0000 C   0  0  0  0  0  0  0  0  0  0  0  0
    0.0000    0.0000    0.0000 C   0  0  0  0  0  0  0  0  0  0  0  0
    0.0000    0.0000    0.0000 C   0  0  0  0  0  0  0  0  0  0  0  0
    0.0000    0.0000    0.0000 C   0  0  0  0  0  0  0  0  0  0  0  0
    0.0000    0.0000    0.0000 C   0  0  0  0  0  0  0  0  0  0  0  0
    0.0000    0.0000    0.0000 C   0  0  0  0  0  0  0  0  0  0  0  0
    0.0000    0.0000    0.0000 C   0  0  0  0  0  0  0  0  0  0  0  0
    0.0000    0.0000    0.0000 C   0  0  0  0  0  0  0  0  0  0  0  0
    0.0000    0.0000    0.0000 O   0  0  0  0  0  0  0  0  0  0  0  0
    0.0000    0.0000    0.0000 C   0  0  0  0  0  0  0  0  0  0  0  0
  1  2  1  0
  2  3  1  0
  3  4  1  0
  4  5  1  0
  5  6  1  0
  6  7  1  0
  7  8  2  0
  7  9  1  0
  9 10  1  0
 10 11  1  0
 11 12  1  0
 12 13  1  0
 13 14  1  0
 14 15  1  0
 15 16  1  0
 16 17  1  0
 10 18  1  0
 18 19  2  0
 18 20  1  0
  4 21  1  0
 21 22  1  0
 22 23  1  0
 23 24  1  0
 23 25  1  0
 25 26  2  0
 26 27  1  0
 27 28  2  0
 28 29  1  0
 29 30  1  0
 29 31  2  0
 23  2  1  0
 17 12  1  0
 31 25  1  0
M  END
>  <pIC50>  (483) 
8.26

>  <ChEMBL_ID>  (483) 
CHEMBL401508

>  <document_journal>  (483) 
Bioorg. Med. Chem. Lett.

>  <bao_endpoint>  (483) 
BAO_0000190

>  <potential_duplicate>  (483) 
False

>  <uo_units>  (483) 
UO_0000065

>  <canonical_smiles>  (483) 
C[C@H]1CN(CCC(=O)N[C@@H](CC2CCCCC2)C(=O)O)CC[C@@]1(C)c3cccc(O)c3

>  <parent_molecule_chembl_id>  (483) 
CHEMBL401508

>  <assay_type>  (483) 
F

>  <src_id>  (483) 
1

>  <ligand_efficiency>  (483) 
None

>  <standard_flag>  (483) 
True

>  <molecule_chembl_id>  (483) 
CHEMBL401508

>  <target_organism>  (483) 
Homo sapiens

>  <standard_units>  (483) 
nM

>  <record_id>  (483) 
705459

>  <document_chembl_id>  (483) 
CHEMBL1144033

>  <bao_format>  (483) 
BAO_0000019

>  <data_validity_description>  (483) 
None

>  <activity_id>  (483) 
2119466

>  <standard_type>  (483) 
IC50

>  <target_chembl_id>  (483) 
CHEMBL233

>  <data_validity_comment>  (483) 
None

>  <published_value>  (483) 
5.5

>  <document_year>  (483) 
2008

>  <target_pref_name>  (483) 
Mu opioid receptor

>  <assay_chembl_id>  (483) 
CHEMBL933966

>  <standard_relation>  (483) 
=

>  <assay_description>  (483) 
Antagonist activity at human cloned mu opioid receptor assessed as inhibition of loperamide-stimulated [35S]GTP-gamma-S binding

>  <published_relation>  (483) 
=

>  <standard_value>  (483) 
5.5

>  <qudt_units>  (483) 
http://www.openphacts.org/units/Nanomolar

>  <target_tax_id>  (483) 
9606

>  <bao_label>  (483) 
assay format

>  <published_units>  (483) 
nM

>  <pchembl_value>  (483) 
8.26

>  <published_type>  (483) 
IC50

>  <activity_comment>  (483) 
None

$$$$

     RDKit          

 31 33  0  0  0  0  0  0  0  0999 V2000
    0.0000    0.0000    0.0000 C   0  0  0  0  0  0  0  0  0  0  0  0
    0.0000    0.0000    0.0000 C   0  0  0  0  0  0  0  0  0  0  0  0
    0.0000    0.0000    0.0000 C   0  0  0  0  0  0  0  0  0  0  0  0
    0.0000    0.0000    0.0000 N   0  0  0  0  0  0  0  0  0  0  0  0
    0.0000    0.0000    0.0000 C   0  0  0  0  0  0  0  0  0  0  0  0
    0.0000    0.0000    0.0000 C   0  0  0  0  0  0  0  0  0  0  0  0
    0.0000    0.0000    0.0000 C   0  0  0  0  0  0  0  0  0  0  0  0
    0.0000    0.0000    0.0000 O   0  0  0  0  0  0  0  0  0  0  0  0
    0.0000    0.0000    0.0000 N   0  0  0  0  0  0  0  0  0  0  0  0
    0.0000    0.0000    0.0000 C   0  0  0  0  0  0  0  0  0  0  0  0
    0.0000    0.0000    0.0000 C   0  0  0  0  0  0  0  0  0  0  0  0
    0.0000    0.0000    0.0000 C   0  0  0  0  0  0  0  0  0  0  0  0
    0.0000    0.0000    0.0000 C   0  0  0  0  0  0  0  0  0  0  0  0
    0.0000    0.0000    0.0000 C   0  0  0  0  0  0  0  0  0  0  0  0
    0.0000    0.0000    0.0000 C   0  0  0  0  0  0  0  0  0  0  0  0
    0.0000    0.0000    0.0000 C   0  0  0  0  0  0  0  0  0  0  0  0
    0.0000    0.0000    0.0000 C   0  0  0  0  0  0  0  0  0  0  0  0
    0.0000    0.0000    0.0000 C   0  0  0  0  0  0  0  0  0  0  0  0
    0.0000    0.0000    0.0000 O   0  0  0  0  0  0  0  0  0  0  0  0
    0.0000    0.0000    0.0000 O   0  0  0  0  0  0  0  0  0  0  0  0
    0.0000    0.0000    0.0000 C   0  0  0  0  0  0  0  0  0  0  0  0
    0.0000    0.0000    0.0000 C   0  0  0  0  0  0  0  0  0  0  0  0
    0.0000    0.0000    0.0000 C   0  0  0  0  0  0  0  0  0  0  0  0
    0.0000    0.0000    0.0000 C   0  0  0  0  0  0  0  0  0  0  0  0
    0.0000    0.0000    0.0000 C   0  0  0  0  0  0  0  0  0  0  0  0
    0.0000    0.0000    0.0000 C   0  0  0  0  0  0  0  0  0  0  0  0
    0.0000    0.0000    0.0000 C   0  0  0  0  0  0  0  0  0  0  0  0
    0.0000    0.0000    0.0000 C   0  0  0  0  0  0  0  0  0  0  0  0
    0.0000    0.0000    0.0000 C   0  0  0  0  0  0  0  0  0  0  0  0
    0.0000    0.0000    0.0000 O   0  0  0  0  0  0  0  0  0  0  0  0
    0.0000    0.0000    0.0000 C   0  0  0  0  0  0  0  0  0  0  0  0
  1  2  1  0
  2  3  1  0
  3  4  1  0
  4  5  1  0
  5  6  1  0
  6  7  1  0
  7  8  2  0
  7  9  1  0
  9 10  1  0
 10 11  1  0
 11 12  1  0
 12 13  2  0
 13 14  1  0
 14 15  2  0
 15 16  1  0
 16 17  2  0
 10 18  1  0
 18 19  2  0
 18 20  1  0
  4 21  1  0
 21 22  1  0
 22 23  1  0
 23 24  1  0
 23 25  1  0
 25 26  2  0
 26 27  1  0
 27 28  2  0
 28 29  1  0
 29 30  1  0
 29 31  2  0
 23  2  1  0
 17 12  1  0
 31 25  1  0
M  END
>  <pIC50>  (484) 
8.11

>  <ChEMBL_ID>  (484) 
CHEMBL401716

>  <document_journal>  (484) 
Bioorg. Med. Chem. Lett.

>  <bao_endpoint>  (484) 
BAO_0000190

>  <potential_duplicate>  (484) 
False

>  <uo_units>  (484) 
UO_0000065

>  <canonical_smiles>  (484) 
C[C@H]1CN(CCC(=O)N[C@@H](Cc2ccccc2)C(=O)O)CC[C@@]1(C)c3cccc(O)c3

>  <parent_molecule_chembl_id>  (484) 
CHEMBL401716

>  <assay_type>  (484) 
F

>  <src_id>  (484) 
1

>  <ligand_efficiency>  (484) 
None

>  <standard_flag>  (484) 
True

>  <molecule_chembl_id>  (484) 
CHEMBL401716

>  <target_organism>  (484) 
Homo sapiens

>  <standard_units>  (484) 
nM

>  <record_id>  (484) 
705458

>  <document_chembl_id>  (484) 
CHEMBL1144033

>  <bao_format>  (484) 
BAO_0000019

>  <data_validity_description>  (484) 
None

>  <activity_id>  (484) 
2119467

>  <standard_type>  (484) 
IC50

>  <target_chembl_id>  (484) 
CHEMBL233

>  <data_validity_comment>  (484) 
None

>  <published_value>  (484) 
7.8

>  <document_year>  (484) 
2008

>  <target_pref_name>  (484) 
Mu opioid receptor

>  <assay_chembl_id>  (484) 
CHEMBL933966

>  <standard_relation>  (484) 
=

>  <assay_description>  (484) 
Antagonist activity at human cloned mu opioid receptor assessed as inhibition of loperamide-stimulated [35S]GTP-gamma-S binding

>  <published_relation>  (484) 
=

>  <standard_value>  (484) 
7.8

>  <qudt_units>  (484) 
http://www.openphacts.org/units/Nanomolar

>  <target_tax_id>  (484) 
9606

>  <bao_label>  (484) 
assay format

>  <published_units>  (484) 
nM

>  <pchembl_value>  (484) 
8.11

>  <published_type>  (484) 
IC50

>  <activity_comment>  (484) 
None

$$$$

     RDKit          

 31 33  0  0  0  0  0  0  0  0999 V2000
    0.0000    0.0000    0.0000 C   0  0  0  0  0  0  0  0  0  0  0  0
    0.0000    0.0000    0.0000 C   0  0  0  0  0  0  0  0  0  0  0  0
    0.0000    0.0000    0.0000 C   0  0  0  0  0  0  0  0  0  0  0  0
    0.0000    0.0000    0.0000 N   0  0  0  0  0  0  0  0  0  0  0  0
    0.0000    0.0000    0.0000 C   0  0  0  0  0  0  0  0  0  0  0  0
    0.0000    0.0000    0.0000 C   0  0  0  0  0  0  0  0  0  0  0  0
    0.0000    0.0000    0.0000 C   0  0  0  0  0  0  0  0  0  0  0  0
    0.0000    0.0000    0.0000 C   0  0  0  0  0  0  0  0  0  0  0  0
    0.0000    0.0000    0.0000 C   0  0  0  0  0  0  0  0  0  0  0  0
    0.0000    0.0000    0.0000 C   0  0  0  0  0  0  0  0  0  0  0  0
    0.0000    0.0000    0.0000 C   0  0  0  0  0  0  0  0  0  0  0  0
    0.0000    0.0000    0.0000 C   0  0  0  0  0  0  0  0  0  0  0  0
    0.0000    0.0000    0.0000 C   0  0  0  0  0  0  0  0  0  0  0  0
    0.0000    0.0000    0.0000 C   0  0  0  0  0  0  0  0  0  0  0  0
    0.0000    0.0000    0.0000 O   0  0  0  0  0  0  0  0  0  0  0  0
    0.0000    0.0000    0.0000 N   0  0  0  0  0  0  0  0  0  0  0  0
    0.0000    0.0000    0.0000 C   0  0  0  0  0  0  0  0  0  0  0  0
    0.0000    0.0000    0.0000 C   0  0  0  0  0  0  0  0  0  0  0  0
    0.0000    0.0000    0.0000 O   0  0  0  0  0  0  0  0  0  0  0  0
    0.0000    0.0000    0.0000 O   0  0  0  0  0  0  0  0  0  0  0  0
    0.0000    0.0000    0.0000 C   0  0  0  0  0  0  0  0  0  0  0  0
    0.0000    0.0000    0.0000 C   0  0  0  0  0  0  0  0  0  0  0  0
    0.0000    0.0000    0.0000 C   0  0  0  0  0  0  0  0  0  0  0  0
    0.0000    0.0000    0.0000 C   0  0  0  0  0  0  0  0  0  0  0  0
    0.0000    0.0000    0.0000 C   0  0  0  0  0  0  0  0  0  0  0  0
    0.0000    0.0000    0.0000 C   0  0  0  0  0  0  0  0  0  0  0  0
    0.0000    0.0000    0.0000 C   0  0  0  0  0  0  0  0  0  0  0  0
    0.0000    0.0000    0.0000 C   0  0  0  0  0  0  0  0  0  0  0  0
    0.0000    0.0000    0.0000 C   0  0  0  0  0  0  0  0  0  0  0  0
    0.0000    0.0000    0.0000 O   0  0  0  0  0  0  0  0  0  0  0  0
    0.0000    0.0000    0.0000 C   0  0  0  0  0  0  0  0  0  0  0  0
  1  2  1  0
  2  3  1  0
  3  4  1  0
  4  5  1  0
  5  6  1  0
  6  7  1  0
  7  8  1  0
  8  9  2  0
  9 10  1  0
 10 11  2  0
 11 12  1  0
 12 13  2  0
  6 14  1  0
 14 15  2  0
 14 16  1  0
 16 17  1  0
 17 18  1  0
 18 19  2  0
 18 20  1  0
  4 21  1  0
 21 22  1  0
 22 23  1  0
 23 24  1  0
 23 25  1  0
 25 26  2  0
 26 27  1  0
 27 28  2  0
 28 29  1  0
 29 30  1  0
 29 31  2  0
 23  2  1  0
 13  8  1  0
 31 25  1  0
M  END
>  <pIC50>  (485) 
8.77

>  <ChEMBL_ID>  (485) 
CHEMBL270190

>  <document_journal>  (485) 
Bioorg. Med. Chem. Lett.

>  <bao_endpoint>  (485) 
BAO_0000190

>  <potential_duplicate>  (485) 
False

>  <uo_units>  (485) 
UO_0000065

>  <canonical_smiles>  (485) 
C[C@H]1CN(C[C@H](Cc2ccccc2)C(=O)NCC(=O)O)CC[C@@]1(C)c3cccc(O)c3

>  <parent_molecule_chembl_id>  (485) 
CHEMBL270190

>  <assay_type>  (485) 
F

>  <src_id>  (485) 
1

>  <ligand_efficiency>  (485) 
None

>  <standard_flag>  (485) 
True

>  <molecule_chembl_id>  (485) 
CHEMBL270190

>  <target_organism>  (485) 
Homo sapiens

>  <standard_units>  (485) 
nM

>  <record_id>  (485) 
705456

>  <document_chembl_id>  (485) 
CHEMBL1144033

>  <bao_format>  (485) 
BAO_0000019

>  <data_validity_description>  (485) 
None

>  <activity_id>  (485) 
2119469

>  <standard_type>  (485) 
IC50

>  <target_chembl_id>  (485) 
CHEMBL233

>  <data_validity_comment>  (485) 
None

>  <published_value>  (485) 
1.7

>  <document_year>  (485) 
2008

>  <target_pref_name>  (485) 
Mu opioid receptor

>  <assay_chembl_id>  (485) 
CHEMBL933966

>  <standard_relation>  (485) 
=

>  <assay_description>  (485) 
Antagonist activity at human cloned mu opioid receptor assessed as inhibition of loperamide-stimulated [35S]GTP-gamma-S binding

>  <published_relation>  (485) 
=

>  <standard_value>  (485) 
1.7

>  <qudt_units>  (485) 
http://www.openphacts.org/units/Nanomolar

>  <target_tax_id>  (485) 
9606

>  <bao_label>  (485) 
assay format

>  <published_units>  (485) 
nM

>  <pchembl_value>  (485) 
8.77

>  <published_type>  (485) 
IC50

>  <activity_comment>  (485) 
None

$$$$

     RDKit          

 25 27  0  0  0  0  0  0  0  0999 V2000
    0.0000    0.0000    0.0000 C   0  0  0  0  0  0  0  0  0  0  0  0
    0.0000    0.0000    0.0000 O   0  0  0  0  0  0  0  0  0  0  0  0
    0.0000    0.0000    0.0000 C   0  0  0  0  0  0  0  0  0  0  0  0
    0.0000    0.0000    0.0000 C   0  0  0  0  0  0  0  0  0  0  0  0
    0.0000    0.0000    0.0000 C   0  0  0  0  0  0  0  0  0  0  0  0
    0.0000    0.0000    0.0000 N   0  0  0  0  0  0  0  0  0  0  0  0
    0.0000    0.0000    0.0000 C   0  0  0  0  0  0  0  0  0  0  0  0
    0.0000    0.0000    0.0000 O   0  0  0  0  0  0  0  0  0  0  0  0
    0.0000    0.0000    0.0000 C   0  0  0  0  0  0  0  0  0  0  0  0
    0.0000    0.0000    0.0000 O   0  0  0  0  0  0  0  0  0  0  0  0
    0.0000    0.0000    0.0000 C   0  0  0  0  0  0  0  0  0  0  0  0
    0.0000    0.0000    0.0000 C   0  0  0  0  0  0  0  0  0  0  0  0
    0.0000    0.0000    0.0000 C   0  0  0  0  0  0  0  0  0  0  0  0
    0.0000    0.0000    0.0000 C   0  0  0  0  0  0  0  0  0  0  0  0
    0.0000    0.0000    0.0000 C   0  0  0  0  0  0  0  0  0  0  0  0
    0.0000    0.0000    0.0000 C   0  0  0  0  0  0  0  0  0  0  0  0
    0.0000    0.0000    0.0000 C   0  0  0  0  0  0  0  0  0  0  0  0
    0.0000    0.0000    0.0000 Cl  0  0  0  0  0  0  0  0  0  0  0  0
    0.0000    0.0000    0.0000 C   0  0  0  0  0  0  0  0  0  0  0  0
    0.0000    0.0000    0.0000 C   0  0  0  0  0  0  0  0  0  0  0  0
    0.0000    0.0000    0.0000 C   0  0  0  0  0  0  0  0  0  0  0  0
    0.0000    0.0000    0.0000 C   0  0  0  0  0  0  0  0  0  0  0  0
    0.0000    0.0000    0.0000 O   0  0  0  0  0  0  0  0  0  0  0  0
    0.0000    0.0000    0.0000 C   0  0  0  0  0  0  0  0  0  0  0  0
    0.0000    0.0000    0.0000 C   0  0  0  0  0  0  0  0  0  0  0  0
  1  2  1  0
  2  3  1  0
  3  4  2  0
  4  5  1  0
  5  6  1  0
  6  7  1  0
  7  8  2  0
  7  9  1  0
  9 10  1  0
 10 11  1  0
 11 12  2  0
 12 13  1  0
 11 14  1  0
 14 15  2  0
 15 16  1  0
 16 17  2  0
 17 18  1  0
 17 19  1  0
 19 20  2  0
  5 21  2  0
 21 22  1  0
 22 23  1  0
 23 24  1  0
 22 25  2  0
 25  3  1  0
 13  9  2  0
 20 14  1  0
M  END
>  <pIC50>  (486) 
5.0

>  <ChEMBL_ID>  (486) 
CHEMBL250699

>  <document_journal>  (486) 
Proc. Natl. Acad. Sci. U.S.A.

>  <bao_endpoint>  (486) 
BAO_0000190

>  <potential_duplicate>  (486) 
False

>  <uo_units>  (486) 
UO_0000065

>  <canonical_smiles>  (486) 
COc1cc(NC(=O)c2oc(cc2)c3ccc(Cl)cc3)cc(OC)c1

>  <parent_molecule_chembl_id>  (486) 
CHEMBL250699

>  <assay_type>  (486) 
B

>  <src_id>  (486) 
1

>  <ligand_efficiency>  (486) 
{u'le': u'0.27', u'bei': u'13.97', u'sei': u'8.24', u'lle': u'0.55'}

>  <standard_flag>  (486) 
True

>  <molecule_chembl_id>  (486) 
CHEMBL250699

>  <target_organism>  (486) 
Homo sapiens

>  <standard_units>  (486) 
nM

>  <record_id>  (486) 
695710

>  <document_chembl_id>  (486) 
CHEMBL1142222

>  <bao_format>  (486) 
BAO_0000357

>  <data_validity_description>  (486) 
None

>  <activity_id>  (486) 
2148258

>  <standard_type>  (486) 
IC50

>  <target_chembl_id>  (486) 
CHEMBL233

>  <data_validity_comment>  (486) 
None

>  <published_value>  (486) 
10

>  <document_year>  (486) 
2007

>  <target_pref_name>  (486) 
Mu opioid receptor

>  <assay_chembl_id>  (486) 
CHEMBL935652

>  <standard_relation>  (486) 
=

>  <assay_description>  (486) 
Displacement of [3H]DAMGO from opioid mu receptor

>  <published_relation>  (486) 
=

>  <standard_value>  (486) 
10000

>  <qudt_units>  (486) 
http://www.openphacts.org/units/Nanomolar

>  <target_tax_id>  (486) 
9606

>  <bao_label>  (486) 
single protein format

>  <published_units>  (486) 
uM

>  <pchembl_value>  (486) 
5

>  <published_type>  (486) 
IC50

>  <activity_comment>  (486) 
None

$$$$

     RDKit          

 25 27  0  0  0  0  0  0  0  0999 V2000
    0.0000    0.0000    0.0000 C   0  0  0  0  0  0  0  0  0  0  0  0
    0.0000    0.0000    0.0000 C   0  0  0  0  0  0  0  0  0  0  0  0
    0.0000    0.0000    0.0000 C   0  0  0  0  0  0  0  0  0  0  0  0
    0.0000    0.0000    0.0000 C   0  0  0  0  0  0  0  0  0  0  0  0
    0.0000    0.0000    0.0000 C   0  0  0  0  0  0  0  0  0  0  0  0
    0.0000    0.0000    0.0000 S   0  0  0  0  0  0  0  0  0  0  0  0
    0.0000    0.0000    0.0000 C   0  0  0  0  0  0  0  0  0  0  0  0
    0.0000    0.0000    0.0000 N   0  0  0  0  0  0  0  0  0  0  0  0
    0.0000    0.0000    0.0000 C   0  0  0  0  0  0  0  0  0  0  0  0
    0.0000    0.0000    0.0000 C   0  0  0  0  0  0  0  0  0  0  0  0
    0.0000    0.0000    0.0000 C   0  0  0  0  0  0  0  0  0  0  0  0
    0.0000    0.0000    0.0000 Cl  0  0  0  0  0  0  0  0  0  0  0  0
    0.0000    0.0000    0.0000 C   0  0  0  0  0  0  0  0  0  0  0  0
    0.0000    0.0000    0.0000 C   0  0  0  0  0  0  0  0  0  0  0  0
    0.0000    0.0000    0.0000 C   0  0  0  0  0  0  0  0  0  0  0  0
    0.0000    0.0000    0.0000 N   0  0  0  0  0  0  0  0  0  0  0  0
    0.0000    0.0000    0.0000 N   0  0  0  0  0  0  0  0  0  0  0  0
    0.0000    0.0000    0.0000 C   0  0  0  0  0  0  0  0  0  0  0  0
    0.0000    0.0000    0.0000 C   0  0  0  0  0  0  0  0  0  0  0  0
    0.0000    0.0000    0.0000 N   0  0  0  0  0  0  0  0  0  0  0  0
    0.0000    0.0000    0.0000 C   0  0  0  0  0  0  0  0  0  0  0  0
    0.0000    0.0000    0.0000 C   0  0  0  0  0  0  0  0  0  0  0  0
    0.0000    0.0000    0.0000 O   0  0  0  0  0  0  0  0  0  0  0  0
    0.0000    0.0000    0.0000 C   0  0  0  0  0  0  0  0  0  0  0  0
    0.0000    0.0000    0.0000 C   0  0  0  0  0  0  0  0  0  0  0  0
  1  2  1  0
  2  3  1  0
  3  4  1  0
  4  5  1  0
  3  6  1  0
  6  7  1  0
  7  8  2  0
  8  9  1  0
  9 10  2  0
 10 11  1  0
 11 12  1  0
 11 13  2  0
 13 14  1  0
 14 15  2  0
 15 16  1  0
 13 17  1  0
 17 18  1  0
 18 19  1  0
 19 20  1  0
 20 21  1  0
 21 22  1  0
 22 23  1  0
 20 24  1  0
 24 25  1  0
 16  7  1  0
 15  9  1  0
 25 17  1  0
M  END
>  <pIC50>  (487) 
5.51

>  <ChEMBL_ID>  (487) 
CHEMBL407325

>  <document_journal>  (487) 
Bioorg. Med. Chem. Lett.

>  <bao_endpoint>  (487) 
BAO_0000190

>  <potential_duplicate>  (487) 
False

>  <uo_units>  (487) 
UO_0000065

>  <canonical_smiles>  (487) 
CCC(CC)Sc1nc2cc(Cl)c(cc2[nH]1)N3CCN(CCO)CC3

>  <parent_molecule_chembl_id>  (487) 
CHEMBL407325

>  <assay_type>  (487) 
B

>  <src_id>  (487) 
1

>  <ligand_efficiency>  (487) 
{u'le': u'0.3', u'bei': u'14.38', u'sei': u'6.83', u'lle': u'1.06'}

>  <standard_flag>  (487) 
True

>  <molecule_chembl_id>  (487) 
CHEMBL407325

>  <target_organism>  (487) 
Homo sapiens

>  <standard_units>  (487) 
nM

>  <record_id>  (487) 
697313

>  <document_chembl_id>  (487) 
CHEMBL1143092

>  <bao_format>  (487) 
BAO_0000219

>  <data_validity_description>  (487) 
None

>  <activity_id>  (487) 
2170746

>  <standard_type>  (487) 
IC50

>  <target_chembl_id>  (487) 
CHEMBL233

>  <data_validity_comment>  (487) 
None

>  <published_value>  (487) 
3100

>  <document_year>  (487) 
2008

>  <target_pref_name>  (487) 
Mu opioid receptor

>  <assay_chembl_id>  (487) 
CHEMBL931350

>  <standard_relation>  (487) 
=

>  <assay_description>  (487) 
Displacement of [3H]diprenorphin from human cloned mu opioid receptor expressed in CHO cell membrane

>  <published_relation>  (487) 
=

>  <standard_value>  (487) 
3100

>  <qudt_units>  (487) 
http://www.openphacts.org/units/Nanomolar

>  <target_tax_id>  (487) 
9606

>  <bao_label>  (487) 
cell-based format

>  <published_units>  (487) 
nM

>  <pchembl_value>  (487) 
5.51

>  <published_type>  (487) 
IC50

>  <activity_comment>  (487) 
None

$$$$

     RDKit          

 26 28  0  0  0  0  0  0  0  0999 V2000
    0.0000    0.0000    0.0000 C   0  0  0  0  0  0  0  0  0  0  0  0
    0.0000    0.0000    0.0000 C   0  0  0  0  0  0  0  0  0  0  0  0
    0.0000    0.0000    0.0000 C   0  0  0  0  0  0  0  0  0  0  0  0
    0.0000    0.0000    0.0000 C   0  0  0  0  0  0  0  0  0  0  0  0
    0.0000    0.0000    0.0000 C   0  0  0  0  0  0  0  0  0  0  0  0
    0.0000    0.0000    0.0000 C   0  0  0  0  0  0  0  0  0  0  0  0
    0.0000    0.0000    0.0000 S   0  0  0  0  0  0  0  0  0  0  0  0
    0.0000    0.0000    0.0000 C   0  0  0  0  0  0  0  0  0  0  0  0
    0.0000    0.0000    0.0000 N   0  0  0  0  0  0  0  0  0  0  0  0
    0.0000    0.0000    0.0000 C   0  0  0  0  0  0  0  0  0  0  0  0
    0.0000    0.0000    0.0000 C   0  0  0  0  0  0  0  0  0  0  0  0
    0.0000    0.0000    0.0000 C   0  0  0  0  0  0  0  0  0  0  0  0
    0.0000    0.0000    0.0000 Cl  0  0  0  0  0  0  0  0  0  0  0  0
    0.0000    0.0000    0.0000 C   0  0  0  0  0  0  0  0  0  0  0  0
    0.0000    0.0000    0.0000 C   0  0  0  0  0  0  0  0  0  0  0  0
    0.0000    0.0000    0.0000 C   0  0  0  0  0  0  0  0  0  0  0  0
    0.0000    0.0000    0.0000 N   0  0  0  0  0  0  0  0  0  0  0  0
    0.0000    0.0000    0.0000 N   0  0  0  0  0  0  0  0  0  0  0  0
    0.0000    0.0000    0.0000 C   0  0  0  0  0  0  0  0  0  0  0  0
    0.0000    0.0000    0.0000 C   0  0  0  0  0  0  0  0  0  0  0  0
    0.0000    0.0000    0.0000 N   0  0  0  0  0  0  0  0  0  0  0  0
    0.0000    0.0000    0.0000 C   0  0  0  0  0  0  0  0  0  0  0  0
    0.0000    0.0000    0.0000 C   0  0  0  0  0  0  0  0  0  0  0  0
    0.0000    0.0000    0.0000 O   0  0  0  0  0  0  0  0  0  0  0  0
    0.0000    0.0000    0.0000 C   0  0  0  0  0  0  0  0  0  0  0  0
    0.0000    0.0000    0.0000 C   0  0  0  0  0  0  0  0  0  0  0  0
  1  2  1  0
  2  3  1  0
  3  4  1  0
  3  5  1  0
  5  6  1  0
  3  7  1  0
  7  8  1  0
  8  9  2  0
  9 10  1  0
 10 11  2  0
 11 12  1  0
 12 13  1  0
 12 14  2  0
 14 15  1  0
 15 16  2  0
 16 17  1  0
 14 18  1  0
 18 19  1  0
 19 20  1  0
 20 21  1  0
 21 22  1  0
 22 23  1  0
 23 24  1  0
 21 25  1  0
 25 26  1  0
 17  8  1  0
 16 10  1  0
 26 18  1  0
M  END
>  <pIC50>  (488) 
5.55

>  <ChEMBL_ID>  (488) 
CHEMBL263918

>  <document_journal>  (488) 
Bioorg. Med. Chem. Lett.

>  <bao_endpoint>  (488) 
BAO_0000190

>  <potential_duplicate>  (488) 
False

>  <uo_units>  (488) 
UO_0000065

>  <canonical_smiles>  (488) 
CCC(C)(CC)Sc1nc2cc(Cl)c(cc2[nH]1)N3CCN(CCO)CC3

>  <parent_molecule_chembl_id>  (488) 
CHEMBL263918

>  <assay_type>  (488) 
B

>  <src_id>  (488) 
1

>  <ligand_efficiency>  (488) 
{u'le': u'0.29', u'bei': u'13.99', u'sei': u'6.88', u'lle': u'0.9'}

>  <standard_flag>  (488) 
True

>  <molecule_chembl_id>  (488) 
CHEMBL263918

>  <target_organism>  (488) 
Homo sapiens

>  <standard_units>  (488) 
nM

>  <record_id>  (488) 
697319

>  <document_chembl_id>  (488) 
CHEMBL1143092

>  <bao_format>  (488) 
BAO_0000219

>  <data_validity_description>  (488) 
None

>  <activity_id>  (488) 
2170749

>  <standard_type>  (488) 
IC50

>  <target_chembl_id>  (488) 
CHEMBL233

>  <data_validity_comment>  (488) 
None

>  <published_value>  (488) 
2800

>  <document_year>  (488) 
2008

>  <target_pref_name>  (488) 
Mu opioid receptor

>  <assay_chembl_id>  (488) 
CHEMBL931350

>  <standard_relation>  (488) 
=

>  <assay_description>  (488) 
Displacement of [3H]diprenorphin from human cloned mu opioid receptor expressed in CHO cell membrane

>  <published_relation>  (488) 
=

>  <standard_value>  (488) 
2800

>  <qudt_units>  (488) 
http://www.openphacts.org/units/Nanomolar

>  <target_tax_id>  (488) 
9606

>  <bao_label>  (488) 
cell-based format

>  <published_units>  (488) 
nM

>  <pchembl_value>  (488) 
5.55

>  <published_type>  (488) 
IC50

>  <activity_comment>  (488) 
None

$$$$

     RDKit          

 27 30  0  0  0  0  0  0  0  0999 V2000
    0.0000    0.0000    0.0000 C   0  0  0  0  0  0  0  0  0  0  0  0
    0.0000    0.0000    0.0000 C   0  0  0  0  0  0  0  0  0  0  0  0
    0.0000    0.0000    0.0000 C   0  0  0  0  0  0  0  0  0  0  0  0
    0.0000    0.0000    0.0000 C   0  0  0  0  0  0  0  0  0  0  0  0
    0.0000    0.0000    0.0000 C   0  0  0  0  0  0  0  0  0  0  0  0
    0.0000    0.0000    0.0000 C   0  0  0  0  0  0  0  0  0  0  0  0
    0.0000    0.0000    0.0000 C   0  0  0  0  0  0  0  0  0  0  0  0
    0.0000    0.0000    0.0000 S   0  0  0  0  0  0  0  0  0  0  0  0
    0.0000    0.0000    0.0000 C   0  0  0  0  0  0  0  0  0  0  0  0
    0.0000    0.0000    0.0000 N   0  0  0  0  0  0  0  0  0  0  0  0
    0.0000    0.0000    0.0000 C   0  0  0  0  0  0  0  0  0  0  0  0
    0.0000    0.0000    0.0000 C   0  0  0  0  0  0  0  0  0  0  0  0
    0.0000    0.0000    0.0000 C   0  0  0  0  0  0  0  0  0  0  0  0
    0.0000    0.0000    0.0000 Cl  0  0  0  0  0  0  0  0  0  0  0  0
    0.0000    0.0000    0.0000 C   0  0  0  0  0  0  0  0  0  0  0  0
    0.0000    0.0000    0.0000 C   0  0  0  0  0  0  0  0  0  0  0  0
    0.0000    0.0000    0.0000 C   0  0  0  0  0  0  0  0  0  0  0  0
    0.0000    0.0000    0.0000 N   0  0  0  0  0  0  0  0  0  0  0  0
    0.0000    0.0000    0.0000 N   0  0  0  0  0  0  0  0  0  0  0  0
    0.0000    0.0000    0.0000 C   0  0  0  0  0  0  0  0  0  0  0  0
    0.0000    0.0000    0.0000 C   0  0  0  0  0  0  0  0  0  0  0  0
    0.0000    0.0000    0.0000 N   0  0  0  0  0  0  0  0  0  0  0  0
    0.0000    0.0000    0.0000 C   0  0  0  0  0  0  0  0  0  0  0  0
    0.0000    0.0000    0.0000 C   0  0  0  0  0  0  0  0  0  0  0  0
    0.0000    0.0000    0.0000 O   0  0  0  0  0  0  0  0  0  0  0  0
    0.0000    0.0000    0.0000 C   0  0  0  0  0  0  0  0  0  0  0  0
    0.0000    0.0000    0.0000 C   0  0  0  0  0  0  0  0  0  0  0  0
  1  2  1  0
  2  3  1  0
  3  4  1  0
  4  5  1  0
  5  6  1  0
  6  7  1  0
  2  8  1  0
  8  9  1  0
  9 10  2  0
 10 11  1  0
 11 12  2  0
 12 13  1  0
 13 14  1  0
 13 15  2  0
 15 16  1  0
 16 17  2  0
 17 18  1  0
 15 19  1  0
 19 20  1  0
 20 21  1  0
 21 22  1  0
 22 23  1  0
 23 24  1  0
 24 25  1  0
 22 26  1  0
 26 27  1  0
  7  2  1  0
 18  9  1  0
 17 11  1  0
 27 19  1  0
M  END
>  <pIC50>  (489) 
5.85

>  <ChEMBL_ID>  (489) 
CHEMBL263917

>  <document_journal>  (489) 
Bioorg. Med. Chem. Lett.

>  <bao_endpoint>  (489) 
BAO_0000190

>  <potential_duplicate>  (489) 
False

>  <uo_units>  (489) 
UO_0000065

>  <canonical_smiles>  (489) 
CC1(CCCCC1)Sc2nc3cc(Cl)c(cc3[nH]2)N4CCN(CCO)CC4

>  <parent_molecule_chembl_id>  (489) 
CHEMBL263917

>  <assay_type>  (489) 
B

>  <src_id>  (489) 
1

>  <ligand_efficiency>  (489) 
{u'le': u'0.3', u'bei': u'14.31', u'sei': u'7.25', u'lle': u'1.11'}

>  <standard_flag>  (489) 
True

>  <molecule_chembl_id>  (489) 
CHEMBL263917

>  <target_organism>  (489) 
Homo sapiens

>  <standard_units>  (489) 
nM

>  <record_id>  (489) 
697318

>  <document_chembl_id>  (489) 
CHEMBL1143092

>  <bao_format>  (489) 
BAO_0000219

>  <data_validity_description>  (489) 
None

>  <activity_id>  (489) 
2170750

>  <standard_type>  (489) 
IC50

>  <target_chembl_id>  (489) 
CHEMBL233

>  <data_validity_comment>  (489) 
None

>  <published_value>  (489) 
1400

>  <document_year>  (489) 
2008

>  <target_pref_name>  (489) 
Mu opioid receptor

>  <assay_chembl_id>  (489) 
CHEMBL931350

>  <standard_relation>  (489) 
=

>  <assay_description>  (489) 
Displacement of [3H]diprenorphin from human cloned mu opioid receptor expressed in CHO cell membrane

>  <published_relation>  (489) 
=

>  <standard_value>  (489) 
1400

>  <qudt_units>  (489) 
http://www.openphacts.org/units/Nanomolar

>  <target_tax_id>  (489) 
9606

>  <bao_label>  (489) 
cell-based format

>  <published_units>  (489) 
nM

>  <pchembl_value>  (489) 
5.85

>  <published_type>  (489) 
IC50

>  <activity_comment>  (489) 
None

$$$$

     RDKit          

 26 29  0  0  0  0  0  0  0  0999 V2000
    0.0000    0.0000    0.0000 O   0  0  0  0  0  0  0  0  0  0  0  0
    0.0000    0.0000    0.0000 C   0  0  0  0  0  0  0  0  0  0  0  0
    0.0000    0.0000    0.0000 C   0  0  0  0  0  0  0  0  0  0  0  0
    0.0000    0.0000    0.0000 N   0  0  0  0  0  0  0  0  0  0  0  0
    0.0000    0.0000    0.0000 C   0  0  0  0  0  0  0  0  0  0  0  0
    0.0000    0.0000    0.0000 C   0  0  0  0  0  0  0  0  0  0  0  0
    0.0000    0.0000    0.0000 N   0  0  0  0  0  0  0  0  0  0  0  0
    0.0000    0.0000    0.0000 C   0  0  0  0  0  0  0  0  0  0  0  0
    0.0000    0.0000    0.0000 C   0  0  0  0  0  0  0  0  0  0  0  0
    0.0000    0.0000    0.0000 C   0  0  0  0  0  0  0  0  0  0  0  0
    0.0000    0.0000    0.0000 C   0  0  0  0  0  0  0  0  0  0  0  0
    0.0000    0.0000    0.0000 C   0  0  0  0  0  0  0  0  0  0  0  0
    0.0000    0.0000    0.0000 N   0  0  0  0  0  0  0  0  0  0  0  0
    0.0000    0.0000    0.0000 C   0  0  0  0  0  0  0  0  0  0  0  0
    0.0000    0.0000    0.0000 S   0  0  0  0  0  0  0  0  0  0  0  0
    0.0000    0.0000    0.0000 C   0  0  0  0  0  0  0  0  0  0  0  0
    0.0000    0.0000    0.0000 C   0  0  0  0  0  0  0  0  0  0  0  0
    0.0000    0.0000    0.0000 C   0  0  0  0  0  0  0  0  0  0  0  0
    0.0000    0.0000    0.0000 C   0  0  0  0  0  0  0  0  0  0  0  0
    0.0000    0.0000    0.0000 C   0  0  0  0  0  0  0  0  0  0  0  0
    0.0000    0.0000    0.0000 C   0  0  0  0  0  0  0  0  0  0  0  0
    0.0000    0.0000    0.0000 N   0  0  0  0  0  0  0  0  0  0  0  0
    0.0000    0.0000    0.0000 C   0  0  0  0  0  0  0  0  0  0  0  0
    0.0000    0.0000    0.0000 C   0  0  0  0  0  0  0  0  0  0  0  0
    0.0000    0.0000    0.0000 C   0  0  0  0  0  0  0  0  0  0  0  0
    0.0000    0.0000    0.0000 Cl  0  0  0  0  0  0  0  0  0  0  0  0
  1  2  1  0
  2  3  1  0
  3  4  1  0
  4  5  1  0
  5  6  1  0
  6  7  1  0
  7  8  1  0
  8  9  1  0
  7 10  1  0
 10 11  2  0
 11 12  1  0
 12 13  1  0
 13 14  1  0
 14 15  1  0
 15 16  1  0
 16 17  1  0
 17 18  1  0
 18 19  1  0
 19 20  1  0
 20 21  1  0
 14 22  2  0
 22 23  1  0
 23 24  1  0
 24 25  2  0
 25 26  1  0
  9  4  1  0
 25 10  1  0
 23 12  2  0
 21 16  1  0
M  END
>  <pIC50>  (490) 
6.28

>  <ChEMBL_ID>  (490) 
CHEMBL408901

>  <document_journal>  (490) 
Bioorg. Med. Chem. Lett.

>  <bao_endpoint>  (490) 
BAO_0000190

>  <potential_duplicate>  (490) 
False

>  <uo_units>  (490) 
UO_0000065

>  <canonical_smiles>  (490) 
OCCN1CCN(CC1)c2cc3[nH]c(SC4CCCCC4)nc3cc2Cl

>  <parent_molecule_chembl_id>  (490) 
CHEMBL408901

>  <assay_type>  (490) 
B

>  <src_id>  (490) 
1

>  <ligand_efficiency>  (490) 
{u'le': u'0.33', u'bei': u'15.91', u'sei': u'7.79', u'lle': u'1.75'}

>  <standard_flag>  (490) 
True

>  <molecule_chembl_id>  (490) 
CHEMBL408901

>  <target_organism>  (490) 
Homo sapiens

>  <standard_units>  (490) 
nM

>  <record_id>  (490) 
697317

>  <document_chembl_id>  (490) 
CHEMBL1143092

>  <bao_format>  (490) 
BAO_0000219

>  <data_validity_description>  (490) 
None

>  <activity_id>  (490) 
2170751

>  <standard_type>  (490) 
IC50

>  <target_chembl_id>  (490) 
CHEMBL233

>  <data_validity_comment>  (490) 
None

>  <published_value>  (490) 
520

>  <document_year>  (490) 
2008

>  <target_pref_name>  (490) 
Mu opioid receptor

>  <assay_chembl_id>  (490) 
CHEMBL931350

>  <standard_relation>  (490) 
=

>  <assay_description>  (490) 
Displacement of [3H]diprenorphin from human cloned mu opioid receptor expressed in CHO cell membrane

>  <published_relation>  (490) 
=

>  <standard_value>  (490) 
520

>  <qudt_units>  (490) 
http://www.openphacts.org/units/Nanomolar

>  <target_tax_id>  (490) 
9606

>  <bao_label>  (490) 
cell-based format

>  <published_units>  (490) 
nM

>  <pchembl_value>  (490) 
6.28

>  <published_type>  (490) 
IC50

>  <activity_comment>  (490) 
None

$$$$

     RDKit          

 25 27  0  0  0  0  0  0  0  0999 V2000
    0.0000    0.0000    0.0000 C   0  0  0  0  0  0  0  0  0  0  0  0
    0.0000    0.0000    0.0000 C   0  0  0  0  0  0  0  0  0  0  0  0
    0.0000    0.0000    0.0000 C   0  0  0  0  0  0  0  0  0  0  0  0
    0.0000    0.0000    0.0000 C   0  0  0  0  0  0  0  0  0  0  0  0
    0.0000    0.0000    0.0000 C   0  0  0  0  0  0  0  0  0  0  0  0
    0.0000    0.0000    0.0000 S   0  0  0  0  0  0  0  0  0  0  0  0
    0.0000    0.0000    0.0000 C   0  0  0  0  0  0  0  0  0  0  0  0
    0.0000    0.0000    0.0000 N   0  0  0  0  0  0  0  0  0  0  0  0
    0.0000    0.0000    0.0000 C   0  0  0  0  0  0  0  0  0  0  0  0
    0.0000    0.0000    0.0000 C   0  0  0  0  0  0  0  0  0  0  0  0
    0.0000    0.0000    0.0000 C   0  0  0  0  0  0  0  0  0  0  0  0
    0.0000    0.0000    0.0000 Cl  0  0  0  0  0  0  0  0  0  0  0  0
    0.0000    0.0000    0.0000 C   0  0  0  0  0  0  0  0  0  0  0  0
    0.0000    0.0000    0.0000 C   0  0  0  0  0  0  0  0  0  0  0  0
    0.0000    0.0000    0.0000 C   0  0  0  0  0  0  0  0  0  0  0  0
    0.0000    0.0000    0.0000 N   0  0  0  0  0  0  0  0  0  0  0  0
    0.0000    0.0000    0.0000 N   0  0  0  0  0  0  0  0  0  0  0  0
    0.0000    0.0000    0.0000 C   0  0  0  0  0  0  0  0  0  0  0  0
    0.0000    0.0000    0.0000 C   0  0  0  0  0  0  0  0  0  0  0  0
    0.0000    0.0000    0.0000 N   0  0  0  0  0  0  0  0  0  0  0  0
    0.0000    0.0000    0.0000 C   0  0  0  0  0  0  0  0  0  0  0  0
    0.0000    0.0000    0.0000 C   0  0  0  0  0  0  0  0  0  0  0  0
    0.0000    0.0000    0.0000 O   0  0  0  0  0  0  0  0  0  0  0  0
    0.0000    0.0000    0.0000 C   0  0  0  0  0  0  0  0  0  0  0  0
    0.0000    0.0000    0.0000 C   0  0  0  0  0  0  0  0  0  0  0  0
  1  2  1  0
  2  3  1  0
  3  4  1  0
  3  5  1  0
  3  6  1  0
  6  7  1  0
  7  8  2  0
  8  9  1  0
  9 10  2  0
 10 11  1  0
 11 12  1  0
 11 13  2  0
 13 14  1  0
 14 15  2  0
 15 16  1  0
 13 17  1  0
 17 18  1  0
 18 19  1  0
 19 20  1  0
 20 21  1  0
 21 22  1  0
 22 23  1  0
 20 24  1  0
 24 25  1  0
 16  7  1  0
 15  9  1  0
 25 17  1  0
M  END
>  <pIC50>  (491) 
5.46

>  <ChEMBL_ID>  (491) 
CHEMBL263919

>  <document_journal>  (491) 
Bioorg. Med. Chem. Lett.

>  <bao_endpoint>  (491) 
BAO_0000190

>  <potential_duplicate>  (491) 
False

>  <uo_units>  (491) 
UO_0000065

>  <canonical_smiles>  (491) 
CCC(C)(C)Sc1nc2cc(Cl)c(cc2[nH]1)N3CCN(CCO)CC3

>  <parent_molecule_chembl_id>  (491) 
CHEMBL263919

>  <assay_type>  (491) 
B

>  <src_id>  (491) 
1

>  <ligand_efficiency>  (491) 
{u'le': u'0.3', u'bei': u'14.25', u'sei': u'6.76', u'lle': u'1.33'}

>  <standard_flag>  (491) 
True

>  <molecule_chembl_id>  (491) 
CHEMBL263919

>  <target_organism>  (491) 
Homo sapiens

>  <standard_units>  (491) 
nM

>  <record_id>  (491) 
697316

>  <document_chembl_id>  (491) 
CHEMBL1143092

>  <bao_format>  (491) 
BAO_0000219

>  <data_validity_description>  (491) 
None

>  <activity_id>  (491) 
2170752

>  <standard_type>  (491) 
IC50

>  <target_chembl_id>  (491) 
CHEMBL233

>  <data_validity_comment>  (491) 
None

>  <published_value>  (491) 
3500

>  <document_year>  (491) 
2008

>  <target_pref_name>  (491) 
Mu opioid receptor

>  <assay_chembl_id>  (491) 
CHEMBL931350

>  <standard_relation>  (491) 
=

>  <assay_description>  (491) 
Displacement of [3H]diprenorphin from human cloned mu opioid receptor expressed in CHO cell membrane

>  <published_relation>  (491) 
=

>  <standard_value>  (491) 
3500

>  <qudt_units>  (491) 
http://www.openphacts.org/units/Nanomolar

>  <target_tax_id>  (491) 
9606

>  <bao_label>  (491) 
cell-based format

>  <published_units>  (491) 
nM

>  <pchembl_value>  (491) 
5.46

>  <published_type>  (491) 
IC50

>  <activity_comment>  (491) 
None

$$$$

     RDKit          

 24 26  0  0  0  0  0  0  0  0999 V2000
    0.0000    0.0000    0.0000 C   0  0  0  0  0  0  0  0  0  0  0  0
    0.0000    0.0000    0.0000 C   0  0  0  0  0  0  0  0  0  0  0  0
    0.0000    0.0000    0.0000 C   0  0  0  0  0  0  0  0  0  0  0  0
    0.0000    0.0000    0.0000 C   0  0  0  0  0  0  0  0  0  0  0  0
    0.0000    0.0000    0.0000 S   0  0  0  0  0  0  0  0  0  0  0  0
    0.0000    0.0000    0.0000 C   0  0  0  0  0  0  0  0  0  0  0  0
    0.0000    0.0000    0.0000 N   0  0  0  0  0  0  0  0  0  0  0  0
    0.0000    0.0000    0.0000 C   0  0  0  0  0  0  0  0  0  0  0  0
    0.0000    0.0000    0.0000 C   0  0  0  0  0  0  0  0  0  0  0  0
    0.0000    0.0000    0.0000 C   0  0  0  0  0  0  0  0  0  0  0  0
    0.0000    0.0000    0.0000 Cl  0  0  0  0  0  0  0  0  0  0  0  0
    0.0000    0.0000    0.0000 C   0  0  0  0  0  0  0  0  0  0  0  0
    0.0000    0.0000    0.0000 C   0  0  0  0  0  0  0  0  0  0  0  0
    0.0000    0.0000    0.0000 C   0  0  0  0  0  0  0  0  0  0  0  0
    0.0000    0.0000    0.0000 N   0  0  0  0  0  0  0  0  0  0  0  0
    0.0000    0.0000    0.0000 N   0  0  0  0  0  0  0  0  0  0  0  0
    0.0000    0.0000    0.0000 C   0  0  0  0  0  0  0  0  0  0  0  0
    0.0000    0.0000    0.0000 C   0  0  0  0  0  0  0  0  0  0  0  0
    0.0000    0.0000    0.0000 N   0  0  0  0  0  0  0  0  0  0  0  0
    0.0000    0.0000    0.0000 C   0  0  0  0  0  0  0  0  0  0  0  0
    0.0000    0.0000    0.0000 C   0  0  0  0  0  0  0  0  0  0  0  0
    0.0000    0.0000    0.0000 O   0  0  0  0  0  0  0  0  0  0  0  0
    0.0000    0.0000    0.0000 C   0  0  0  0  0  0  0  0  0  0  0  0
    0.0000    0.0000    0.0000 C   0  0  0  0  0  0  0  0  0  0  0  0
  1  2  1  0
  2  3  1  0
  2  4  1  0
  2  5  1  0
  5  6  1  0
  6  7  2  0
  7  8  1  0
  8  9  2  0
  9 10  1  0
 10 11  1  0
 10 12  2  0
 12 13  1  0
 13 14  2  0
 14 15  1  0
 12 16  1  0
 16 17  1  0
 17 18  1  0
 18 19  1  0
 19 20  1  0
 20 21  1  0
 21 22  1  0
 19 23  1  0
 23 24  1  0
 15  6  1  0
 14  8  1  0
 24 16  1  0
M  END
>  <pIC50>  (492) 
5.36

>  <ChEMBL_ID>  (492) 
CHEMBL259185

>  <document_journal>  (492) 
Bioorg. Med. Chem. Lett.

>  <bao_endpoint>  (492) 
BAO_0000190

>  <potential_duplicate>  (492) 
False

>  <uo_units>  (492) 
UO_0000065

>  <canonical_smiles>  (492) 
CC(C)(C)Sc1nc2cc(Cl)c(cc2[nH]1)N3CCN(CCO)CC3

>  <parent_molecule_chembl_id>  (492) 
CHEMBL259185

>  <assay_type>  (492) 
B

>  <src_id>  (492) 
1

>  <ligand_efficiency>  (492) 
{u'le': u'0.3', u'bei': u'14.52', u'sei': u'6.64', u'lle': u'1.76'}

>  <standard_flag>  (492) 
True

>  <molecule_chembl_id>  (492) 
CHEMBL259185

>  <target_organism>  (492) 
Homo sapiens

>  <standard_units>  (492) 
nM

>  <record_id>  (492) 
697315

>  <document_chembl_id>  (492) 
CHEMBL1143092

>  <bao_format>  (492) 
BAO_0000219

>  <data_validity_description>  (492) 
None

>  <activity_id>  (492) 
2170753

>  <standard_type>  (492) 
IC50

>  <target_chembl_id>  (492) 
CHEMBL233

>  <data_validity_comment>  (492) 
None

>  <published_value>  (492) 
4400

>  <document_year>  (492) 
2008

>  <target_pref_name>  (492) 
Mu opioid receptor

>  <assay_chembl_id>  (492) 
CHEMBL931350

>  <standard_relation>  (492) 
=

>  <assay_description>  (492) 
Displacement of [3H]diprenorphin from human cloned mu opioid receptor expressed in CHO cell membrane

>  <published_relation>  (492) 
=

>  <standard_value>  (492) 
4400

>  <qudt_units>  (492) 
http://www.openphacts.org/units/Nanomolar

>  <target_tax_id>  (492) 
9606

>  <bao_label>  (492) 
cell-based format

>  <published_units>  (492) 
nM

>  <pchembl_value>  (492) 
5.36

>  <published_type>  (492) 
IC50

>  <activity_comment>  (492) 
None

$$$$

     RDKit          

 23 25  0  0  0  0  0  0  0  0999 V2000
    0.0000    0.0000    0.0000 C   0  0  0  0  0  0  0  0  0  0  0  0
    0.0000    0.0000    0.0000 C   0  0  0  0  0  0  0  0  0  0  0  0
    0.0000    0.0000    0.0000 C   0  0  0  0  0  0  0  0  0  0  0  0
    0.0000    0.0000    0.0000 S   0  0  0  0  0  0  0  0  0  0  0  0
    0.0000    0.0000    0.0000 C   0  0  0  0  0  0  0  0  0  0  0  0
    0.0000    0.0000    0.0000 N   0  0  0  0  0  0  0  0  0  0  0  0
    0.0000    0.0000    0.0000 C   0  0  0  0  0  0  0  0  0  0  0  0
    0.0000    0.0000    0.0000 C   0  0  0  0  0  0  0  0  0  0  0  0
    0.0000    0.0000    0.0000 C   0  0  0  0  0  0  0  0  0  0  0  0
    0.0000    0.0000    0.0000 Cl  0  0  0  0  0  0  0  0  0  0  0  0
    0.0000    0.0000    0.0000 C   0  0  0  0  0  0  0  0  0  0  0  0
    0.0000    0.0000    0.0000 C   0  0  0  0  0  0  0  0  0  0  0  0
    0.0000    0.0000    0.0000 C   0  0  0  0  0  0  0  0  0  0  0  0
    0.0000    0.0000    0.0000 N   0  0  0  0  0  0  0  0  0  0  0  0
    0.0000    0.0000    0.0000 N   0  0  0  0  0  0  0  0  0  0  0  0
    0.0000    0.0000    0.0000 C   0  0  0  0  0  0  0  0  0  0  0  0
    0.0000    0.0000    0.0000 C   0  0  0  0  0  0  0  0  0  0  0  0
    0.0000    0.0000    0.0000 N   0  0  0  0  0  0  0  0  0  0  0  0
    0.0000    0.0000    0.0000 C   0  0  0  0  0  0  0  0  0  0  0  0
    0.0000    0.0000    0.0000 C   0  0  0  0  0  0  0  0  0  0  0  0
    0.0000    0.0000    0.0000 O   0  0  0  0  0  0  0  0  0  0  0  0
    0.0000    0.0000    0.0000 C   0  0  0  0  0  0  0  0  0  0  0  0
    0.0000    0.0000    0.0000 C   0  0  0  0  0  0  0  0  0  0  0  0
  1  2  1  0
  2  3  1  0
  2  4  1  0
  4  5  1  0
  5  6  2  0
  6  7  1  0
  7  8  2  0
  8  9  1  0
  9 10  1  0
  9 11  2  0
 11 12  1  0
 12 13  2  0
 13 14  1  0
 11 15  1  0
 15 16  1  0
 16 17  1  0
 17 18  1  0
 18 19  1  0
 19 20  1  0
 20 21  1  0
 18 22  1  0
 22 23  1  0
 14  5  1  0
 13  7  1  0
 23 15  1  0
M  END
>  <pIC50>  (493) 
5.51

>  <ChEMBL_ID>  (493) 
CHEMBL263904

>  <document_journal>  (493) 
Bioorg. Med. Chem. Lett.

>  <bao_endpoint>  (493) 
BAO_0000190

>  <potential_duplicate>  (493) 
False

>  <uo_units>  (493) 
UO_0000065

>  <canonical_smiles>  (493) 
CC(C)Sc1nc2cc(Cl)c(cc2[nH]1)N3CCN(CCO)CC3

>  <parent_molecule_chembl_id>  (493) 
CHEMBL263904

>  <assay_type>  (493) 
B

>  <src_id>  (493) 
1

>  <ligand_efficiency>  (493) 
{u'le': u'0.33', u'bei': u'15.52', u'sei': u'6.83', u'lle': u'2.11'}

>  <standard_flag>  (493) 
True

>  <molecule_chembl_id>  (493) 
CHEMBL263904

>  <target_organism>  (493) 
Homo sapiens

>  <standard_units>  (493) 
nM

>  <record_id>  (493) 
697314

>  <document_chembl_id>  (493) 
CHEMBL1143092

>  <bao_format>  (493) 
BAO_0000219

>  <data_validity_description>  (493) 
None

>  <activity_id>  (493) 
2170754

>  <standard_type>  (493) 
IC50

>  <target_chembl_id>  (493) 
CHEMBL233

>  <data_validity_comment>  (493) 
None

>  <published_value>  (493) 
3100

>  <document_year>  (493) 
2008

>  <target_pref_name>  (493) 
Mu opioid receptor

>  <assay_chembl_id>  (493) 
CHEMBL931350

>  <standard_relation>  (493) 
=

>  <assay_description>  (493) 
Displacement of [3H]diprenorphin from human cloned mu opioid receptor expressed in CHO cell membrane

>  <published_relation>  (493) 
=

>  <standard_value>  (493) 
3100

>  <qudt_units>  (493) 
http://www.openphacts.org/units/Nanomolar

>  <target_tax_id>  (493) 
9606

>  <bao_label>  (493) 
cell-based format

>  <published_units>  (493) 
nM

>  <pchembl_value>  (493) 
5.51

>  <published_type>  (493) 
IC50

>  <activity_comment>  (493) 
None

$$$$

     RDKit          

 40 41  0  0  0  0  0  0  0  0999 V2000
    0.0000    0.0000    0.0000 C   0  0  0  0  0  0  0  0  0  0  0  0
    0.0000    0.0000    0.0000 C   0  0  0  0  0  0  0  0  0  0  0  0
    0.0000    0.0000    0.0000 C   0  0  0  0  0  0  0  0  0  0  0  0
    0.0000    0.0000    0.0000 C   0  0  0  0  0  0  0  0  0  0  0  0
    0.0000    0.0000    0.0000 C   0  0  0  0  0  0  0  0  0  0  0  0
    0.0000    0.0000    0.0000 N   0  0  0  0  0  0  0  0  0  0  0  0
    0.0000    0.0000    0.0000 C   0  0  0  0  0  0  0  0  0  0  0  0
    0.0000    0.0000    0.0000 O   0  0  0  0  0  0  0  0  0  0  0  0
    0.0000    0.0000    0.0000 C   0  0  0  0  0  0  0  0  0  0  0  0
    0.0000    0.0000    0.0000 C   0  0  0  0  0  0  0  0  0  0  0  0
    0.0000    0.0000    0.0000 C   0  0  0  0  0  0  0  0  0  0  0  0
    0.0000    0.0000    0.0000 C   0  0  0  0  0  0  0  0  0  0  0  0
    0.0000    0.0000    0.0000 C   0  0  0  0  0  0  0  0  0  0  0  0
    0.0000    0.0000    0.0000 C   0  0  0  0  0  0  0  0  0  0  0  0
    0.0000    0.0000    0.0000 C   0  0  0  0  0  0  0  0  0  0  0  0
    0.0000    0.0000    0.0000 C   0  0  0  0  0  0  0  0  0  0  0  0
    0.0000    0.0000    0.0000 N   0  0  0  0  0  0  0  0  0  0  0  0
    0.0000    0.0000    0.0000 C   0  0  0  0  0  0  0  0  0  0  0  0
    0.0000    0.0000    0.0000 O   0  0  0  0  0  0  0  0  0  0  0  0
    0.0000    0.0000    0.0000 C   0  0  0  0  0  0  0  0  0  0  0  0
    0.0000    0.0000    0.0000 N   0  0  0  0  0  0  0  0  0  0  0  0
    0.0000    0.0000    0.0000 C   0  0  0  0  0  0  0  0  0  0  0  0
    0.0000    0.0000    0.0000 O   0  0  0  0  0  0  0  0  0  0  0  0
    0.0000    0.0000    0.0000 C   0  0  0  0  0  0  0  0  0  0  0  0
    0.0000    0.0000    0.0000 N   0  0  0  0  0  0  0  0  0  0  0  0
    0.0000    0.0000    0.0000 C   0  0  0  0  0  0  0  0  0  0  0  0
    0.0000    0.0000    0.0000 O   0  0  0  0  0  0  0  0  0  0  0  0
    0.0000    0.0000    0.0000 C   0  0  0  0  0  0  0  0  0  0  0  0
    0.0000    0.0000    0.0000 N   0  0  0  0  0  0  0  0  0  0  0  0
    0.0000    0.0000    0.0000 C   0  0  0  0  0  0  0  0  0  0  0  0
    0.0000    0.0000    0.0000 C   0  0  0  0  0  0  0  0  0  0  0  0
    0.0000    0.0000    0.0000 C   0  0  0  0  0  0  0  0  0  0  0  0
    0.0000    0.0000    0.0000 C   0  0  0  0  0  0  0  0  0  0  0  0
    0.0000    0.0000    0.0000 C   0  0  0  0  0  0  0  0  0  0  0  0
    0.0000    0.0000    0.0000 O   0  0  0  0  0  0  0  0  0  0  0  0
    0.0000    0.0000    0.0000 C   0  0  0  0  0  0  0  0  0  0  0  0
    0.0000    0.0000    0.0000 C   0  0  0  0  0  0  0  0  0  0  0  0
    0.0000    0.0000    0.0000 C   0  0  0  0  0  0  0  0  0  0  0  0
    0.0000    0.0000    0.0000 O   0  0  0  0  0  0  0  0  0  0  0  0
    0.0000    0.0000    0.0000 N   0  0  0  0  0  0  0  0  0  0  0  0
  1  2  1  0
  2  3  1  0
  2  4  1  0
  4  5  1  0
  5  6  1  0
  6  7  1  0
  7  8  2  0
  7  9  1  0
  9 10  1  0
 10 11  1  0
 11 12  2  0
 12 13  1  0
 13 14  2  0
 14 15  1  0
 15 16  2  0
  9 17  1  0
 17 18  1  0
 18 19  2  0
 18 20  1  0
 20 21  1  0
 21 22  1  0
 22 23  2  0
 22 24  1  0
 24 25  1  0
 25 26  1  0
 26 27  2  0
 26 28  1  0
 28 29  1  0
 28 30  1  0
 30 31  1  0
 31 32  2  0
 32 33  1  0
 33 34  2  0
 34 35  1  0
 34 36  1  0
 36 37  2  0
  5 38  1  0
 38 39  2  0
 38 40  1  0
 16 11  1  0
 37 31  1  0
M  END
>  <pIC50>  (494) 
7.41

>  <ChEMBL_ID>  (494) 
CHEMBL35838

>  <document_journal>  (494) 
Bioorg. Med. Chem.

>  <bao_endpoint>  (494) 
BAO_0000190

>  <potential_duplicate>  (494) 
False

>  <uo_units>  (494) 
UO_0000065

>  <canonical_smiles>  (494) 
CC(C)C[C@H](NC(=O)[C@H](Cc1ccccc1)NC(=O)CNC(=O)CNC(=O)[C@@H](N)Cc2ccc(O)cc2)C(=O)N

>  <parent_molecule_chembl_id>  (494) 
CHEMBL35838

>  <assay_type>  (494) 
F

>  <src_id>  (494) 
1

>  <ligand_efficiency>  (494) 
None

>  <standard_flag>  (494) 
True

>  <molecule_chembl_id>  (494) 
CHEMBL35838

>  <target_organism>  (494) 
Homo sapiens

>  <standard_units>  (494) 
nM

>  <record_id>  (494) 
768327

>  <document_chembl_id>  (494) 
CHEMBL1149874

>  <bao_format>  (494) 
BAO_0000219

>  <data_validity_description>  (494) 
None

>  <activity_id>  (494) 
2215722

>  <standard_type>  (494) 
IC50

>  <target_chembl_id>  (494) 
CHEMBL233

>  <data_validity_comment>  (494) 
None

>  <published_value>  (494) 
26.1

>  <document_year>  (494) 
2008

>  <target_pref_name>  (494) 
Mu opioid receptor

>  <assay_chembl_id>  (494) 
CHEMBL969341

>  <standard_relation>  (494) 
=

>  <assay_description>  (494) 
Agonist activity at mu opioid receptor assessed as inhibition of forskolin-induced cAMP production in human SH-SY5Y cells pretreated for 24 hrs with DMEM medium after 15 mins

>  <published_relation>  (494) 
=

>  <standard_value>  (494) 
26.1

>  <qudt_units>  (494) 
http://www.openphacts.org/units/Nanomolar

>  <target_tax_id>  (494) 
9606

>  <bao_label>  (494) 
cell-based format

>  <published_units>  (494) 
nM

>  <pchembl_value>  (494) 
7.58

>  <published_type>  (494) 
IC50

>  <activity_comment>  (494) 
None

$$$$

     RDKit          

 50 53  0  0  0  0  0  0  0  0999 V2000
    0.0000    0.0000    0.0000 C   0  0  0  0  0  0  0  0  0  0  0  0
    0.0000    0.0000    0.0000 C   0  0  0  0  0  0  0  0  0  0  0  0
    0.0000    0.0000    0.0000 C   0  0  0  0  0  0  0  0  0  0  0  0
    0.0000    0.0000    0.0000 C   0  0  0  0  0  0  0  0  0  0  0  0
    0.0000    0.0000    0.0000 C   0  0  0  0  0  0  0  0  0  0  0  0
    0.0000    0.0000    0.0000 N   0  0  0  0  0  0  0  0  0  0  0  0
    0.0000    0.0000    0.0000 C   0  0  0  0  0  0  0  0  0  0  0  0
    0.0000    0.0000    0.0000 O   0  0  0  0  0  0  0  0  0  0  0  0
    0.0000    0.0000    0.0000 C   0  0  0  0  0  0  0  0  0  0  0  0
    0.0000    0.0000    0.0000 C   0  0  0  0  0  0  0  0  0  0  0  0
    0.0000    0.0000    0.0000 C   0  0  0  0  0  0  0  0  0  0  0  0
    0.0000    0.0000    0.0000 C   0  0  0  0  0  0  0  0  0  0  0  0
    0.0000    0.0000    0.0000 C   0  0  0  0  0  0  0  0  0  0  0  0
    0.0000    0.0000    0.0000 C   0  0  0  0  0  0  0  0  0  0  0  0
    0.0000    0.0000    0.0000 C   0  0  0  0  0  0  0  0  0  0  0  0
    0.0000    0.0000    0.0000 C   0  0  0  0  0  0  0  0  0  0  0  0
    0.0000    0.0000    0.0000 N   0  0  0  0  0  0  0  0  0  0  0  0
    0.0000    0.0000    0.0000 C   0  0  0  0  0  0  0  0  0  0  0  0
    0.0000    0.0000    0.0000 O   0  0  0  0  0  0  0  0  0  0  0  0
    0.0000    0.0000    0.0000 C   0  0  0  0  0  0  0  0  0  0  0  0
    0.0000    0.0000    0.0000 C   0  0  0  0  0  0  0  0  0  0  0  0
    0.0000    0.0000    0.0000 C   0  0  0  0  0  0  0  0  0  0  0  0
    0.0000    0.0000    0.0000 C   0  0  0  0  0  0  0  0  0  0  0  0
    0.0000    0.0000    0.0000 N   0  0  0  0  0  0  0  0  0  0  0  0
    0.0000    0.0000    0.0000 C   0  0  0  0  0  0  0  0  0  0  0  0
    0.0000    0.0000    0.0000 C   0  0  0  0  0  0  0  0  0  0  0  0
    0.0000    0.0000    0.0000 C   0  0  0  0  0  0  0  0  0  0  0  0
    0.0000    0.0000    0.0000 C   0  0  0  0  0  0  0  0  0  0  0  0
    0.0000    0.0000    0.0000 C   0  0  0  0  0  0  0  0  0  0  0  0
    0.0000    0.0000    0.0000 C   0  0  0  0  0  0  0  0  0  0  0  0
    0.0000    0.0000    0.0000 N   0  0  0  0  0  0  0  0  0  0  0  0
    0.0000    0.0000    0.0000 C   0  0  0  0  0  0  0  0  0  0  0  0
    0.0000    0.0000    0.0000 O   0  0  0  0  0  0  0  0  0  0  0  0
    0.0000    0.0000    0.0000 C   0  0  0  0  0  0  0  0  0  0  0  0
    0.0000    0.0000    0.0000 N   0  0  0  0  0  0  0  0  0  0  0  0
    0.0000    0.0000    0.0000 C   0  0  0  0  0  0  0  0  0  0  0  0
    0.0000    0.0000    0.0000 O   0  0  0  0  0  0  0  0  0  0  0  0
    0.0000    0.0000    0.0000 C   0  0  0  0  0  0  0  0  0  0  0  0
    0.0000    0.0000    0.0000 N   0  0  0  0  0  0  0  0  0  0  0  0
    0.0000    0.0000    0.0000 C   0  0  0  0  0  0  0  0  0  0  0  0
    0.0000    0.0000    0.0000 C   0  0  0  0  0  0  0  0  0  0  0  0
    0.0000    0.0000    0.0000 C   0  0  0  0  0  0  0  0  0  0  0  0
    0.0000    0.0000    0.0000 C   0  0  0  0  0  0  0  0  0  0  0  0
    0.0000    0.0000    0.0000 C   0  0  0  0  0  0  0  0  0  0  0  0
    0.0000    0.0000    0.0000 O   0  0  0  0  0  0  0  0  0  0  0  0
    0.0000    0.0000    0.0000 C   0  0  0  0  0  0  0  0  0  0  0  0
    0.0000    0.0000    0.0000 C   0  0  0  0  0  0  0  0  0  0  0  0
    0.0000    0.0000    0.0000 C   0  0  0  0  0  0  0  0  0  0  0  0
    0.0000    0.0000    0.0000 O   0  0  0  0  0  0  0  0  0  0  0  0
    0.0000    0.0000    0.0000 N   0  0  0  0  0  0  0  0  0  0  0  0
  1  2  1  0
  2  3  1  0
  2  4  1  0
  4  5  1  0
  5  6  1  0
  6  7  1  0
  7  8  2  0
  7  9  1  0
  9 10  1  0
 10 11  1  0
 11 12  2  0
 12 13  1  0
 13 14  2  0
 14 15  1  0
 15 16  2  0
  9 17  1  0
 17 18  1  0
 18 19  2  0
 18 20  1  0
 20 21  1  0
 21 22  1  0
 22 23  2  0
 23 24  1  0
 24 25  1  0
 25 26  2  0
 26 27  1  0
 27 28  2  0
 28 29  1  0
 29 30  2  0
 20 31  1  0
 31 32  1  0
 32 33  2  0
 32 34  1  0
 34 35  1  0
 35 36  1  0
 36 37  2  0
 36 38  1  0
 38 39  1  0
 38 40  1  0
 40 41  1  0
 41 42  2  0
 42 43  1  0
 43 44  2  0
 44 45  1  0
 44 46  1  0
 46 47  2  0
  5 48  1  0
 48 49  2  0
 48 50  1  0
 16 11  1  0
 30 22  1  0
 30 25  1  0
 47 41  1  0
M  END
>  <pIC50>  (495) 
6.89

>  <ChEMBL_ID>  (495) 
CHEMBL455502

>  <document_journal>  (495) 
Bioorg. Med. Chem.

>  <bao_endpoint>  (495) 
BAO_0000190

>  <potential_duplicate>  (495) 
False

>  <uo_units>  (495) 
UO_0000065

>  <canonical_smiles>  (495) 
CC(C)C[C@H](NC(=O)[C@H](Cc1ccccc1)NC(=O)[C@H](Cc2c[nH]c3ccccc23)NC(=O)CNC(=O)[C@@H](N)Cc4ccc(O)cc4)C(=O)N

>  <parent_molecule_chembl_id>  (495) 
CHEMBL455502

>  <assay_type>  (495) 
F

>  <src_id>  (495) 
1

>  <ligand_efficiency>  (495) 
None

>  <standard_flag>  (495) 
True

>  <molecule_chembl_id>  (495) 
CHEMBL455502

>  <target_organism>  (495) 
Homo sapiens

>  <standard_units>  (495) 
nM

>  <record_id>  (495) 
768435

>  <document_chembl_id>  (495) 
CHEMBL1149874

>  <bao_format>  (495) 
BAO_0000219

>  <data_validity_description>  (495) 
None

>  <activity_id>  (495) 
2215724

>  <standard_type>  (495) 
IC50

>  <target_chembl_id>  (495) 
CHEMBL233

>  <data_validity_comment>  (495) 
None

>  <published_value>  (495) 
126.2

>  <document_year>  (495) 
2008

>  <target_pref_name>  (495) 
Mu opioid receptor

>  <assay_chembl_id>  (495) 
CHEMBL969341

>  <standard_relation>  (495) 
=

>  <assay_description>  (495) 
Agonist activity at mu opioid receptor assessed as inhibition of forskolin-induced cAMP production in human SH-SY5Y cells pretreated for 24 hrs with DMEM medium after 15 mins

>  <published_relation>  (495) 
=

>  <standard_value>  (495) 
126.2

>  <qudt_units>  (495) 
http://www.openphacts.org/units/Nanomolar

>  <target_tax_id>  (495) 
9606

>  <bao_label>  (495) 
cell-based format

>  <published_units>  (495) 
nM

>  <pchembl_value>  (495) 
6.9

>  <published_type>  (495) 
IC50

>  <activity_comment>  (495) 
None

$$$$

     RDKit          

 43 45  0  0  0  0  0  0  0  0999 V2000
    0.0000    0.0000    0.0000 C   0  0  0  0  0  0  0  0  0  0  0  0
    0.0000    0.0000    0.0000 C   0  0  0  0  0  0  0  0  0  0  0  0
    0.0000    0.0000    0.0000 C   0  0  0  0  0  0  0  0  0  0  0  0
    0.0000    0.0000    0.0000 C   0  0  0  0  0  0  0  0  0  0  0  0
    0.0000    0.0000    0.0000 C   0  0  0  0  0  0  0  0  0  0  0  0
    0.0000    0.0000    0.0000 N   0  0  0  0  0  0  0  0  0  0  0  0
    0.0000    0.0000    0.0000 C   0  0  0  0  0  0  0  0  0  0  0  0
    0.0000    0.0000    0.0000 O   0  0  0  0  0  0  0  0  0  0  0  0
    0.0000    0.0000    0.0000 C   0  0  0  0  0  0  0  0  0  0  0  0
    0.0000    0.0000    0.0000 C   0  0  0  0  0  0  0  0  0  0  0  0
    0.0000    0.0000    0.0000 C   0  0  0  0  0  0  0  0  0  0  0  0
    0.0000    0.0000    0.0000 C   0  0  0  0  0  0  0  0  0  0  0  0
    0.0000    0.0000    0.0000 N   0  0  0  0  0  0  0  0  0  0  0  0
    0.0000    0.0000    0.0000 C   0  0  0  0  0  0  0  0  0  0  0  0
    0.0000    0.0000    0.0000 C   0  0  0  0  0  0  0  0  0  0  0  0
    0.0000    0.0000    0.0000 C   0  0  0  0  0  0  0  0  0  0  0  0
    0.0000    0.0000    0.0000 C   0  0  0  0  0  0  0  0  0  0  0  0
    0.0000    0.0000    0.0000 C   0  0  0  0  0  0  0  0  0  0  0  0
    0.0000    0.0000    0.0000 C   0  0  0  0  0  0  0  0  0  0  0  0
    0.0000    0.0000    0.0000 N   0  0  0  0  0  0  0  0  0  0  0  0
    0.0000    0.0000    0.0000 C   0  0  0  0  0  0  0  0  0  0  0  0
    0.0000    0.0000    0.0000 O   0  0  0  0  0  0  0  0  0  0  0  0
    0.0000    0.0000    0.0000 C   0  0  0  0  0  0  0  0  0  0  0  0
    0.0000    0.0000    0.0000 N   0  0  0  0  0  0  0  0  0  0  0  0
    0.0000    0.0000    0.0000 C   0  0  0  0  0  0  0  0  0  0  0  0
    0.0000    0.0000    0.0000 O   0  0  0  0  0  0  0  0  0  0  0  0
    0.0000    0.0000    0.0000 C   0  0  0  0  0  0  0  0  0  0  0  0
    0.0000    0.0000    0.0000 N   0  0  0  0  0  0  0  0  0  0  0  0
    0.0000    0.0000    0.0000 C   0  0  0  0  0  0  0  0  0  0  0  0
    0.0000    0.0000    0.0000 O   0  0  0  0  0  0  0  0  0  0  0  0
    0.0000    0.0000    0.0000 C   0  0  0  0  0  0  0  0  0  0  0  0
    0.0000    0.0000    0.0000 N   0  0  0  0  0  0  0  0  0  0  0  0
    0.0000    0.0000    0.0000 C   0  0  0  0  0  0  0  0  0  0  0  0
    0.0000    0.0000    0.0000 C   0  0  0  0  0  0  0  0  0  0  0  0
    0.0000    0.0000    0.0000 C   0  0  0  0  0  0  0  0  0  0  0  0
    0.0000    0.0000    0.0000 C   0  0  0  0  0  0  0  0  0  0  0  0
    0.0000    0.0000    0.0000 C   0  0  0  0  0  0  0  0  0  0  0  0
    0.0000    0.0000    0.0000 O   0  0  0  0  0  0  0  0  0  0  0  0
    0.0000    0.0000    0.0000 C   0  0  0  0  0  0  0  0  0  0  0  0
    0.0000    0.0000    0.0000 C   0  0  0  0  0  0  0  0  0  0  0  0
    0.0000    0.0000    0.0000 C   0  0  0  0  0  0  0  0  0  0  0  0
    0.0000    0.0000    0.0000 O   0  0  0  0  0  0  0  0  0  0  0  0
    0.0000    0.0000    0.0000 N   0  0  0  0  0  0  0  0  0  0  0  0
  1  2  1  0
  2  3  1  0
  2  4  1  0
  4  5  1  0
  5  6  1  0
  6  7  1  0
  7  8  2  0
  7  9  1  0
  9 10  1  0
 10 11  1  0
 11 12  2  0
 12 13  1  0
 13 14  1  0
 14 15  2  0
 15 16  1  0
 16 17  2  0
 17 18  1  0
 18 19  2  0
  9 20  1  0
 20 21  1  0
 21 22  2  0
 21 23  1  0
 23 24  1  0
 24 25  1  0
 25 26  2  0
 25 27  1  0
 27 28  1  0
 28 29  1  0
 29 30  2  0
 29 31  1  0
 31 32  1  0
 31 33  1  0
 33 34  1  0
 34 35  2  0
 35 36  1  0
 36 37  2  0
 37 38  1  0
 37 39  1  0
 39 40  2  0
  5 41  1  0
 41 42  2  0
 41 43  1  0
 19 11  1  0
 19 14  1  0
 40 34  1  0
M  END
>  <pIC50>  (496) 
7.435

>  <ChEMBL_ID>  (496) 
CHEMBL504973

>  <document_journal>  (496) 
Bioorg. Med. Chem.

>  <bao_endpoint>  (496) 
BAO_0000190

>  <potential_duplicate>  (496) 
False

>  <uo_units>  (496) 
UO_0000065

>  <canonical_smiles>  (496) 
CC(C)C[C@H](NC(=O)[C@H](Cc1c[nH]c2ccccc12)NC(=O)CNC(=O)CNC(=O)[C@@H](N)Cc3ccc(O)cc3)C(=O)N

>  <parent_molecule_chembl_id>  (496) 
CHEMBL504973

>  <assay_type>  (496) 
F

>  <src_id>  (496) 
1

>  <ligand_efficiency>  (496) 
None

>  <standard_flag>  (496) 
True

>  <molecule_chembl_id>  (496) 
CHEMBL504973

>  <target_organism>  (496) 
Homo sapiens

>  <standard_units>  (496) 
nM

>  <record_id>  (496) 
768328

>  <document_chembl_id>  (496) 
CHEMBL1149874

>  <bao_format>  (496) 
BAO_0000219

>  <data_validity_description>  (496) 
None

>  <activity_id>  (496) 
2215725

>  <standard_type>  (496) 
IC50

>  <target_chembl_id>  (496) 
CHEMBL233

>  <data_validity_comment>  (496) 
None

>  <published_value>  (496) 
27.5

>  <document_year>  (496) 
2008

>  <target_pref_name>  (496) 
Mu opioid receptor

>  <assay_chembl_id>  (496) 
CHEMBL969341

>  <standard_relation>  (496) 
=

>  <assay_description>  (496) 
Agonist activity at mu opioid receptor assessed as inhibition of forskolin-induced cAMP production in human SH-SY5Y cells pretreated for 24 hrs with DMEM medium after 15 mins

>  <published_relation>  (496) 
=

>  <standard_value>  (496) 
27.5

>  <qudt_units>  (496) 
http://www.openphacts.org/units/Nanomolar

>  <target_tax_id>  (496) 
9606

>  <bao_label>  (496) 
cell-based format

>  <published_units>  (496) 
nM

>  <pchembl_value>  (496) 
7.56

>  <published_type>  (496) 
IC50

>  <activity_comment>  (496) 
None

$$$$

     RDKit          

 36 42  0  0  0  0  0  0  0  0999 V2000
    0.0000    0.0000    0.0000 C   0  0  0  0  0  0  0  0  0  0  0  0
    0.0000    0.0000    0.0000 O   0  0  0  0  0  0  0  0  0  0  0  0
    0.0000    0.0000    0.0000 C   0  0  0  0  0  0  0  0  0  0  0  0
    0.0000    0.0000    0.0000 C   0  0  0  0  0  0  0  0  0  0  0  0
    0.0000    0.0000    0.0000 C   0  0  0  0  0  0  0  0  0  0  0  0
    0.0000    0.0000    0.0000 C   0  0  0  0  0  0  0  0  0  0  0  0
    0.0000    0.0000    0.0000 C   0  0  0  0  0  0  0  0  0  0  0  0
    0.0000    0.0000    0.0000 C   0  0  0  0  0  0  0  0  0  0  0  0
    0.0000    0.0000    0.0000 C   0  0  0  0  0  0  0  0  0  0  0  0
    0.0000    0.0000    0.0000 C   0  0  0  0  0  0  0  0  0  0  0  0
    0.0000    0.0000    0.0000 O   0  0  0  0  0  0  0  0  0  0  0  0
    0.0000    0.0000    0.0000 C   0  0  0  0  0  0  0  0  0  0  0  0
    0.0000    0.0000    0.0000 C   0  0  0  0  0  0  0  0  0  0  0  0
    0.0000    0.0000    0.0000 C   0  0  0  0  0  0  0  0  0  0  0  0
    0.0000    0.0000    0.0000 C   0  0  0  0  0  0  0  0  0  0  0  0
    0.0000    0.0000    0.0000 C   0  0  0  0  0  0  0  0  0  0  0  0
    0.0000    0.0000    0.0000 C   0  0  0  0  0  0  0  0  0  0  0  0
    0.0000    0.0000    0.0000 C   0  0  0  0  0  0  0  0  0  0  0  0
    0.0000    0.0000    0.0000 C   0  0  0  0  0  0  0  0  0  0  0  0
    0.0000    0.0000    0.0000 C   0  0  0  0  0  0  0  0  0  0  0  0
    0.0000    0.0000    0.0000 C   0  0  0  0  0  0  0  0  0  0  0  0
    0.0000    0.0000    0.0000 C   0  0  0  0  0  0  0  0  0  0  0  0
    0.0000    0.0000    0.0000 O   0  0  0  0  0  0  0  0  0  0  0  0
    0.0000    0.0000    0.0000 N   0  0  0  0  0  0  0  0  0  0  0  0
    0.0000    0.0000    0.0000 C   0  0  0  0  0  0  0  0  0  0  0  0
    0.0000    0.0000    0.0000 O   0  0  0  0  0  0  0  0  0  0  0  0
    0.0000    0.0000    0.0000 C   0  0  0  0  0  0  0  0  0  0  0  0
    0.0000    0.0000    0.0000 C   0  0  0  0  0  0  0  0  0  0  0  0
    0.0000    0.0000    0.0000 C   0  0  0  0  0  0  0  0  0  0  0  0
    0.0000    0.0000    0.0000 C   0  0  0  0  0  0  0  0  0  0  0  0
    0.0000    0.0000    0.0000 N   0  0  0  0  0  0  0  0  0  0  0  0
    0.0000    0.0000    0.0000 C   0  0  0  0  0  0  0  0  0  0  0  0
    0.0000    0.0000    0.0000 C   0  0  0  0  0  0  0  0  0  0  0  0
    0.0000    0.0000    0.0000 C   0  0  0  0  0  0  0  0  0  0  0  0
    0.0000    0.0000    0.0000 C   0  0  0  0  0  0  0  0  0  0  0  0
    0.0000    0.0000    0.0000 C   0  0  0  0  0  0  0  0  0  0  0  0
  1  2  1  0
  2  3  1  0
  3  4  1  0
  4  5  1  0
  5  6  1  0
  6  7  1  0
  7  8  1  0
  8  9  1  0
  9 10  1  0
  9 11  1  0
  9 12  1  0
 12 13  1  0
 12 14  1  0
 12 15  1  0
  6 16  1  0
 16 17  1  0
 17 18  1  0
 18 19  1  0
 19 20  2  0
 20 21  1  0
 21 22  1  0
 22 23  2  0
 22 24  1  0
 21 25  2  0
 25 26  1  0
 26 27  1  0
 27 28  1  0
 28 29  1  0
 29 30  1  0
 30 31  1  0
 31 32  1  0
 32 33  1  0
 33 34  1  0
 34 35  1  0
 28 36  1  0
  8  3  1  0
 27  3  1  0
 28  6  1  0
 31 16  1  0
 36 18  2  0
 36 25  1  0
 35 33  1  0
M  END
>  <pIC50>  (497) 
8.4

>  <ChEMBL_ID>  (497) 
CHEMBL517567

>  <document_journal>  (497) 
Bioorg. Med. Chem. Lett.

>  <bao_endpoint>  (497) 
BAO_0000190

>  <potential_duplicate>  (497) 
False

>  <uo_units>  (497) 
UO_0000065

>  <canonical_smiles>  (497) 
CO[C@@]12CC[C@@]3(C[C@@H]1[C@@](C)(O)C(C)(C)C)[C@H]4Cc5ccc(C(=O)N)c6O[C@@H]2[C@]3(CCN4CC7CC7)c56

>  <parent_molecule_chembl_id>  (497) 
CHEMBL517567

>  <assay_type>  (497) 
F

>  <src_id>  (497) 
1

>  <ligand_efficiency>  (497) 
None

>  <standard_flag>  (497) 
True

>  <molecule_chembl_id>  (497) 
CHEMBL517567

>  <target_organism>  (497) 
Homo sapiens

>  <standard_units>  (497) 
nM

>  <record_id>  (497) 
749675

>  <document_chembl_id>  (497) 
CHEMBL1139291

>  <bao_format>  (497) 
BAO_0000219

>  <data_validity_description>  (497) 
None

>  <activity_id>  (497) 
2263723

>  <standard_type>  (497) 
IC50

>  <target_chembl_id>  (497) 
CHEMBL233

>  <data_validity_comment>  (497) 
None

>  <published_value>  (497) 
4

>  <document_year>  (497) 
2009

>  <target_pref_name>  (497) 
Mu opioid receptor

>  <assay_chembl_id>  (497) 
CHEMBL1019888

>  <standard_relation>  (497) 
=

>  <assay_description>  (497) 
Activity at human cloned mu opioid receptor expressed in CHO cells assessed as inhibition of DAMGO-induced [35S]GTPgammaS binding

>  <published_relation>  (497) 
=

>  <standard_value>  (497) 
4

>  <qudt_units>  (497) 
http://www.openphacts.org/units/Nanomolar

>  <target_tax_id>  (497) 
9606

>  <bao_label>  (497) 
cell-based format

>  <published_units>  (497) 
nM

>  <pchembl_value>  (497) 
8.4

>  <published_type>  (497) 
IC50

>  <activity_comment>  (497) 
None

$$$$

     RDKit          

 34 40  0  0  0  0  0  0  0  0999 V2000
    0.0000    0.0000    0.0000 C   0  0  0  0  0  0  0  0  0  0  0  0
    0.0000    0.0000    0.0000 O   0  0  0  0  0  0  0  0  0  0  0  0
    0.0000    0.0000    0.0000 C   0  0  0  0  0  0  0  0  0  0  0  0
    0.0000    0.0000    0.0000 C   0  0  0  0  0  0  0  0  0  0  0  0
    0.0000    0.0000    0.0000 C   0  0  0  0  0  0  0  0  0  0  0  0
    0.0000    0.0000    0.0000 C   0  0  0  0  0  0  0  0  0  0  0  0
    0.0000    0.0000    0.0000 C   0  0  0  0  0  0  0  0  0  0  0  0
    0.0000    0.0000    0.0000 C   0  0  0  0  0  0  0  0  0  0  0  0
    0.0000    0.0000    0.0000 C   0  0  0  0  0  0  0  0  0  0  0  0
    0.0000    0.0000    0.0000 C   0  0  0  0  0  0  0  0  0  0  0  0
    0.0000    0.0000    0.0000 O   0  0  0  0  0  0  0  0  0  0  0  0
    0.0000    0.0000    0.0000 C   0  0  0  0  0  0  0  0  0  0  0  0
    0.0000    0.0000    0.0000 C   0  0  0  0  0  0  0  0  0  0  0  0
    0.0000    0.0000    0.0000 C   0  0  0  0  0  0  0  0  0  0  0  0
    0.0000    0.0000    0.0000 C   0  0  0  0  0  0  0  0  0  0  0  0
    0.0000    0.0000    0.0000 C   0  0  0  0  0  0  0  0  0  0  0  0
    0.0000    0.0000    0.0000 C   0  0  0  0  0  0  0  0  0  0  0  0
    0.0000    0.0000    0.0000 C   0  0  0  0  0  0  0  0  0  0  0  0
    0.0000    0.0000    0.0000 C   0  0  0  0  0  0  0  0  0  0  0  0
    0.0000    0.0000    0.0000 C   0  0  0  0  0  0  0  0  0  0  0  0
    0.0000    0.0000    0.0000 C   0  0  0  0  0  0  0  0  0  0  0  0
    0.0000    0.0000    0.0000 O   0  0  0  0  0  0  0  0  0  0  0  0
    0.0000    0.0000    0.0000 C   0  0  0  0  0  0  0  0  0  0  0  0
    0.0000    0.0000    0.0000 O   0  0  0  0  0  0  0  0  0  0  0  0
    0.0000    0.0000    0.0000 C   0  0  0  0  0  0  0  0  0  0  0  0
    0.0000    0.0000    0.0000 C   0  0  0  0  0  0  0  0  0  0  0  0
    0.0000    0.0000    0.0000 C   0  0  0  0  0  0  0  0  0  0  0  0
    0.0000    0.0000    0.0000 C   0  0  0  0  0  0  0  0  0  0  0  0
    0.0000    0.0000    0.0000 N   0  0  0  0  0  0  0  0  0  0  0  0
    0.0000    0.0000    0.0000 C   0  0  0  0  0  0  0  0  0  0  0  0
    0.0000    0.0000    0.0000 C   0  0  0  0  0  0  0  0  0  0  0  0
    0.0000    0.0000    0.0000 C   0  0  0  0  0  0  0  0  0  0  0  0
    0.0000    0.0000    0.0000 C   0  0  0  0  0  0  0  0  0  0  0  0
    0.0000    0.0000    0.0000 C   0  0  0  0  0  0  0  0  0  0  0  0
  1  2  1  0
  2  3  1  0
  3  4  1  0
  4  5  1  0
  5  6  1  0
  6  7  1  0
  7  8  1  0
  8  9  1  0
  9 10  1  0
  9 11  1  0
  9 12  1  0
 12 13  1  0
 12 14  1  0
 12 15  1  0
  6 16  1  0
 16 17  1  0
 17 18  1  0
 18 19  1  0
 19 20  2  0
 20 21  1  0
 21 22  1  0
 21 23  2  0
 23 24  1  0
 24 25  1  0
 25 26  1  0
 26 27  1  0
 27 28  1  0
 28 29  1  0
 29 30  1  0
 30 31  1  0
 31 32  1  0
 32 33  1  0
 26 34  1  0
  8  3  1  0
 25  3  1  0
 26  6  1  0
 29 16  1  0
 34 18  2  0
 34 23  1  0
 33 31  1  0
M  END
>  <pIC50>  (498) 
9.23

>  <ChEMBL_ID>  (498) 
CHEMBL511142

>  <document_journal>  (498) 
Bioorg. Med. Chem. Lett.

>  <bao_endpoint>  (498) 
BAO_0000190

>  <potential_duplicate>  (498) 
False

>  <uo_units>  (498) 
UO_0000065

>  <canonical_smiles>  (498) 
CO[C@@]12CC[C@@]3(C[C@@H]1[C@](C)(O)C(C)(C)C)[C@H]4Cc5ccc(O)c6O[C@@H]2[C@]3(CCN4CC7CC7)c56

>  <parent_molecule_chembl_id>  (498) 
CHEMBL511142

>  <assay_type>  (498) 
F

>  <src_id>  (498) 
1

>  <ligand_efficiency>  (498) 
None

>  <standard_flag>  (498) 
True

>  <molecule_chembl_id>  (498) 
CHEMBL511142

>  <target_organism>  (498) 
Homo sapiens

>  <standard_units>  (498) 
nM

>  <record_id>  (498) 
749762

>  <document_chembl_id>  (498) 
CHEMBL1139291

>  <bao_format>  (498) 
BAO_0000219

>  <data_validity_description>  (498) 
None

>  <activity_id>  (498) 
2263729

>  <standard_type>  (498) 
IC50

>  <target_chembl_id>  (498) 
CHEMBL233

>  <data_validity_comment>  (498) 
None

>  <published_value>  (498) 
0.59

>  <document_year>  (498) 
2009

>  <target_pref_name>  (498) 
Mu opioid receptor

>  <assay_chembl_id>  (498) 
CHEMBL1019888

>  <standard_relation>  (498) 
=

>  <assay_description>  (498) 
Activity at human cloned mu opioid receptor expressed in CHO cells assessed as inhibition of DAMGO-induced [35S]GTPgammaS binding

>  <published_relation>  (498) 
=

>  <standard_value>  (498) 
0.59

>  <qudt_units>  (498) 
http://www.openphacts.org/units/Nanomolar

>  <target_tax_id>  (498) 
9606

>  <bao_label>  (498) 
cell-based format

>  <published_units>  (498) 
nM

>  <pchembl_value>  (498) 
9.23

>  <published_type>  (498) 
IC50

>  <activity_comment>  (498) 
None

$$$$

     RDKit          

 20 23  0  0  0  0  0  0  0  0999 V2000
    0.0000    0.0000    0.0000 C   0  0  0  0  0  0  0  0  0  0  0  0
    0.0000    0.0000    0.0000 C   0  0  0  0  0  0  0  0  0  0  0  0
    0.0000    0.0000    0.0000 C   0  0  0  0  0  0  0  0  0  0  0  0
    0.0000    0.0000    0.0000 C   0  0  0  0  0  0  0  0  0  0  0  0
    0.0000    0.0000    0.0000 C   0  0  0  0  0  0  0  0  0  0  0  0
    0.0000    0.0000    0.0000 C   0  0  0  0  0  0  0  0  0  0  0  0
    0.0000    0.0000    0.0000 C   0  0  0  0  0  0  0  0  0  0  0  0
    0.0000    0.0000    0.0000 C   0  0  0  0  0  0  0  0  0  0  0  0
    0.0000    0.0000    0.0000 O   0  0  0  0  0  0  0  0  0  0  0  0
    0.0000    0.0000    0.0000 C   0  0  0  0  0  0  0  0  0  0  0  0
    0.0000    0.0000    0.0000 C   0  0  0  0  0  0  0  0  0  0  0  0
    0.0000    0.0000    0.0000 C   0  0  0  0  0  0  0  0  0  0  0  0
    0.0000    0.0000    0.0000 C   0  0  0  0  0  0  0  0  0  0  0  0
    0.0000    0.0000    0.0000 C   0  0  0  0  0  0  0  0  0  0  0  0
    0.0000    0.0000    0.0000 C   0  0  0  0  0  0  0  0  0  0  0  0
    0.0000    0.0000    0.0000 N   0  0  0  0  0  0  0  0  0  0  0  0
    0.0000    0.0000    0.0000 C   0  0  0  0  0  0  0  0  0  0  0  0
    0.0000    0.0000    0.0000 C   0  0  0  0  0  0  0  0  0  0  0  0
    0.0000    0.0000    0.0000 C   0  0  0  0  0  0  0  0  0  0  0  0
    0.0000    0.0000    0.0000 C   0  0  0  0  0  0  0  0  0  0  0  0
  1  2  1  0
  2  3  1  0
  3  4  1  0
  4  5  1  0
  5  6  2  0
  6  7  1  0
  7  8  2  0
  8  9  1  0
  8 10  1  0
 10 11  2  0
 11 12  1  0
 12 13  1  0
 12 14  1  0
 14 15  1  0
 15 16  1  0
 16 17  1  0
 17 18  1  0
 18 19  1  0
 19 20  1  0
 12  2  1  0
 16  3  1  0
 11  5  1  0
 20 18  1  0
M  END
>  <pIC50>  (499) 
7.89

>  <ChEMBL_ID>  (499) 
CHEMBL56585

>  <document_journal>  (499) 
Bioorg. Med. Chem. Lett.

>  <bao_endpoint>  (499) 
BAO_0000190

>  <potential_duplicate>  (499) 
False

>  <uo_units>  (499) 
UO_0000065

>  <canonical_smiles>  (499) 
C[C@H]1[C@H]2Cc3ccc(O)cc3[C@]1(C)CCN2CC4CC4

>  <parent_molecule_chembl_id>  (499) 
CHEMBL56585

>  <assay_type>  (499) 
F

>  <src_id>  (499) 
1

>  <ligand_efficiency>  (499) 
None

>  <standard_flag>  (499) 
True

>  <molecule_chembl_id>  (499) 
CHEMBL56585

>  <target_organism>  (499) 
Homo sapiens

>  <standard_units>  (499) 
nM

>  <record_id>  (499) 
749742

>  <document_chembl_id>  (499) 
CHEMBL1139291

>  <bao_format>  (499) 
BAO_0000219

>  <data_validity_description>  (499) 
None

>  <activity_id>  (499) 
2263743

>  <standard_type>  (499) 
IC50

>  <target_chembl_id>  (499) 
CHEMBL233

>  <data_validity_comment>  (499) 
None

>  <published_value>  (499) 
13

>  <document_year>  (499) 
2009

>  <target_pref_name>  (499) 
Mu opioid receptor

>  <assay_chembl_id>  (499) 
CHEMBL1019888

>  <standard_relation>  (499) 
=

>  <assay_description>  (499) 
Activity at human cloned mu opioid receptor expressed in CHO cells assessed as inhibition of DAMGO-induced [35S]GTPgammaS binding

>  <published_relation>  (499) 
=

>  <standard_value>  (499) 
13

>  <qudt_units>  (499) 
http://www.openphacts.org/units/Nanomolar

>  <target_tax_id>  (499) 
9606

>  <bao_label>  (499) 
cell-based format

>  <published_units>  (499) 
nM

>  <pchembl_value>  (499) 
7.89

>  <published_type>  (499) 
IC50

>  <activity_comment>  (499) 
None

$$$$

     RDKit          

 22 25  0  0  0  0  0  0  0  0999 V2000
    0.0000    0.0000    0.0000 C   0  0  0  0  0  0  0  0  0  0  0  0
    0.0000    0.0000    0.0000 C   0  0  0  0  0  0  0  0  0  0  0  0
    0.0000    0.0000    0.0000 C   0  0  0  0  0  0  0  0  0  0  0  0
    0.0000    0.0000    0.0000 C   0  0  0  0  0  0  0  0  0  0  0  0
    0.0000    0.0000    0.0000 C   0  0  0  0  0  0  0  0  0  0  0  0
    0.0000    0.0000    0.0000 C   0  0  0  0  0  0  0  0  0  0  0  0
    0.0000    0.0000    0.0000 C   0  0  0  0  0  0  0  0  0  0  0  0
    0.0000    0.0000    0.0000 C   0  0  0  0  0  0  0  0  0  0  0  0
    0.0000    0.0000    0.0000 C   0  0  0  0  0  0  0  0  0  0  0  0
    0.0000    0.0000    0.0000 C   0  0  0  0  0  0  0  0  0  0  0  0
    0.0000    0.0000    0.0000 C   0  0  0  0  0  0  0  0  0  0  0  0
    0.0000    0.0000    0.0000 C   0  0  0  0  0  0  0  0  0  0  0  0
    0.0000    0.0000    0.0000 C   0  0  0  0  0  0  0  0  0  0  0  0
    0.0000    0.0000    0.0000 C   0  0  0  0  0  0  0  0  0  0  0  0
    0.0000    0.0000    0.0000 N   0  0  0  0  0  0  0  0  0  0  0  0
    0.0000    0.0000    0.0000 C   0  0  0  0  0  0  0  0  0  0  0  0
    0.0000    0.0000    0.0000 C   0  0  0  0  0  0  0  0  0  0  0  0
    0.0000    0.0000    0.0000 C   0  0  0  0  0  0  0  0  0  0  0  0
    0.0000    0.0000    0.0000 C   0  0  0  0  0  0  0  0  0  0  0  0
    0.0000    0.0000    0.0000 C   0  0  0  0  0  0  0  0  0  0  0  0
    0.0000    0.0000    0.0000 O   0  0  0  0  0  0  0  0  0  0  0  0
    0.0000    0.0000    0.0000 N   0  0  0  0  0  0  0  0  0  0  0  0
  1  2  1  0
  2  3  1  0
  3  4  1  0
  4  5  1  0
  5  6  2  0
  6  7  1  0
  7  8  2  0
  8  9  1  0
  9 10  2  0
 10 11  1  0
 11 12  1  0
 11 13  1  0
 13 14  1  0
 14 15  1  0
 15 16  1  0
 16 17  1  0
 17 18  1  0
 18 19  1  0
  8 20  1  0
 20 21  2  0
 20 22  1  0
 11  2  1  0
 15  3  1  0
 10  5  1  0
 19 17  1  0
M  END
>  <pIC50>  (500) 
7.82

>  <ChEMBL_ID>  (500) 
CHEMBL297428

>  <document_journal>  (500) 
Bioorg. Med. Chem. Lett.

>  <bao_endpoint>  (500) 
BAO_0000190

>  <potential_duplicate>  (500) 
False

>  <uo_units>  (500) 
UO_0000065

>  <canonical_smiles>  (500) 
CC1C2Cc3ccc(cc3C1(C)CCN2CC4CC4)C(=O)N

>  <parent_molecule_chembl_id>  (500) 
CHEMBL297428

>  <assay_type>  (500) 
F

>  <src_id>  (500) 
1

>  <ligand_efficiency>  (500) 
None

>  <standard_flag>  (500) 
True

>  <molecule_chembl_id>  (500) 
CHEMBL297428

>  <target_organism>  (500) 
Homo sapiens

>  <standard_units>  (500) 
nM

>  <record_id>  (500) 
749743

>  <document_chembl_id>  (500) 
CHEMBL1139291

>  <bao_format>  (500) 
BAO_0000219

>  <data_validity_description>  (500) 
None

>  <activity_id>  (500) 
2263749

>  <standard_type>  (500) 
IC50

>  <target_chembl_id>  (500) 
CHEMBL233

>  <data_validity_comment>  (500) 
None

>  <published_value>  (500) 
15

>  <document_year>  (500) 
2009

>  <target_pref_name>  (500) 
Mu opioid receptor

>  <assay_chembl_id>  (500) 
CHEMBL1019888

>  <standard_relation>  (500) 
=

>  <assay_description>  (500) 
Activity at human cloned mu opioid receptor expressed in CHO cells assessed as inhibition of DAMGO-induced [35S]GTPgammaS binding

>  <published_relation>  (500) 
=

>  <standard_value>  (500) 
15

>  <qudt_units>  (500) 
http://www.openphacts.org/units/Nanomolar

>  <target_tax_id>  (500) 
9606

>  <bao_label>  (500) 
cell-based format

>  <published_units>  (500) 
nM

>  <pchembl_value>  (500) 
7.82

>  <published_type>  (500) 
IC50

>  <activity_comment>  (500) 
None

$$$$

     RDKit          

 19 21  0  0  0  0  0  0  0  0999 V2000
    0.0000    0.0000    0.0000 C   0  0  0  0  0  0  0  0  0  0  0  0
    0.0000    0.0000    0.0000 C   0  0  0  0  0  0  0  0  0  0  0  0
    0.0000    0.0000    0.0000 C   0  0  0  0  0  0  0  0  0  0  0  0
    0.0000    0.0000    0.0000 C   0  0  0  0  0  0  0  0  0  0  0  0
    0.0000    0.0000    0.0000 C   0  0  0  0  0  0  0  0  0  0  0  0
    0.0000    0.0000    0.0000 C   0  0  0  0  0  0  0  0  0  0  0  0
    0.0000    0.0000    0.0000 C   0  0  0  0  0  0  0  0  0  0  0  0
    0.0000    0.0000    0.0000 C   0  0  0  0  0  0  0  0  0  0  0  0
    0.0000    0.0000    0.0000 C   0  0  0  0  0  0  0  0  0  0  0  0
    0.0000    0.0000    0.0000 C   0  0  0  0  0  0  0  0  0  0  0  0
    0.0000    0.0000    0.0000 C   0  0  0  0  0  0  0  0  0  0  0  0
    0.0000    0.0000    0.0000 C   0  0  0  0  0  0  0  0  0  0  0  0
    0.0000    0.0000    0.0000 C   0  0  0  0  0  0  0  0  0  0  0  0
    0.0000    0.0000    0.0000 C   0  0  0  0  0  0  0  0  0  0  0  0
    0.0000    0.0000    0.0000 N   0  0  0  0  0  0  0  0  0  0  0  0
    0.0000    0.0000    0.0000 C   0  0  0  0  0  0  0  0  0  0  0  0
    0.0000    0.0000    0.0000 C   0  0  0  0  0  0  0  0  0  0  0  0
    0.0000    0.0000    0.0000 O   0  0  0  0  0  0  0  0  0  0  0  0
    0.0000    0.0000    0.0000 N   0  0  0  0  0  0  0  0  0  0  0  0
  1  2  1  0
  2  3  1  0
  3  4  1  0
  4  5  1  0
  5  6  2  0
  6  7  1  0
  7  8  2  0
  8  9  1  0
  9 10  2  0
 10 11  1  0
 11 12  1  0
 11 13  1  0
 13 14  1  0
 14 15  1  0
 15 16  1  0
  8 17  1  0
 17 18  2  0
 17 19  1  0
 11  2  1  0
 15  3  1  0
 10  5  1  0
M  END
>  <pIC50>  (501) 
7.6

>  <ChEMBL_ID>  (501) 
CHEMBL511884

>  <document_journal>  (501) 
Bioorg. Med. Chem. Lett.

>  <bao_endpoint>  (501) 
BAO_0000190

>  <potential_duplicate>  (501) 
False

>  <uo_units>  (501) 
UO_0000065

>  <canonical_smiles>  (501) 
CC1C2Cc3ccc(cc3C1(C)CCN2C)C(=O)N

>  <parent_molecule_chembl_id>  (501) 
CHEMBL511884

>  <assay_type>  (501) 
F

>  <src_id>  (501) 
1

>  <ligand_efficiency>  (501) 
None

>  <standard_flag>  (501) 
True

>  <molecule_chembl_id>  (501) 
CHEMBL511884

>  <target_organism>  (501) 
Homo sapiens

>  <standard_units>  (501) 
nM

>  <record_id>  (501) 
749748

>  <document_chembl_id>  (501) 
CHEMBL1139291

>  <bao_format>  (501) 
BAO_0000219

>  <data_validity_description>  (501) 
None

>  <activity_id>  (501) 
2263784

>  <standard_type>  (501) 
IC50

>  <target_chembl_id>  (501) 
CHEMBL233

>  <data_validity_comment>  (501) 
None

>  <published_value>  (501) 
25

>  <document_year>  (501) 
2009

>  <target_pref_name>  (501) 
Mu opioid receptor

>  <assay_chembl_id>  (501) 
CHEMBL1019888

>  <standard_relation>  (501) 
=

>  <assay_description>  (501) 
Activity at human cloned mu opioid receptor expressed in CHO cells assessed as inhibition of DAMGO-induced [35S]GTPgammaS binding

>  <published_relation>  (501) 
=

>  <standard_value>  (501) 
25

>  <qudt_units>  (501) 
http://www.openphacts.org/units/Nanomolar

>  <target_tax_id>  (501) 
9606

>  <bao_label>  (501) 
cell-based format

>  <published_units>  (501) 
nM

>  <pchembl_value>  (501) 
7.6

>  <published_type>  (501) 
IC50

>  <activity_comment>  (501) 
None

$$$$

     RDKit          

 22 25  0  0  0  0  0  0  0  0999 V2000
    0.0000    0.0000    0.0000 C   0  0  0  0  0  0  0  0  0  0  0  0
    0.0000    0.0000    0.0000 C   0  0  0  0  0  0  0  0  0  0  0  0
    0.0000    0.0000    0.0000 C   0  0  0  0  0  0  0  0  0  0  0  0
    0.0000    0.0000    0.0000 C   0  0  0  0  0  0  0  0  0  0  0  0
    0.0000    0.0000    0.0000 C   0  0  0  0  0  0  0  0  0  0  0  0
    0.0000    0.0000    0.0000 C   0  0  0  0  0  0  0  0  0  0  0  0
    0.0000    0.0000    0.0000 C   0  0  0  0  0  0  0  0  0  0  0  0
    0.0000    0.0000    0.0000 C   0  0  0  0  0  0  0  0  0  0  0  0
    0.0000    0.0000    0.0000 O   0  0  0  0  0  0  0  0  0  0  0  0
    0.0000    0.0000    0.0000 C   0  0  0  0  0  0  0  0  0  0  0  0
    0.0000    0.0000    0.0000 C   0  0  0  0  0  0  0  0  0  0  0  0
    0.0000    0.0000    0.0000 C   0  0  0  0  0  0  0  0  0  0  0  0
    0.0000    0.0000    0.0000 C   0  0  0  0  0  0  0  0  0  0  0  0
    0.0000    0.0000    0.0000 C   0  0  0  0  0  0  0  0  0  0  0  0
    0.0000    0.0000    0.0000 C   0  0  0  0  0  0  0  0  0  0  0  0
    0.0000    0.0000    0.0000 N   0  0  0  0  0  0  0  0  0  0  0  0
    0.0000    0.0000    0.0000 C   0  0  0  0  0  0  0  0  0  0  0  0
    0.0000    0.0000    0.0000 C   0  0  0  0  0  0  0  0  0  0  0  0
    0.0000    0.0000    0.0000 C   0  0  0  0  0  0  0  0  0  0  0  0
    0.0000    0.0000    0.0000 C   0  0  0  0  0  0  0  0  0  0  0  0
    0.0000    0.0000    0.0000 C   0  0  0  0  0  0  0  0  0  0  0  0
    0.0000    0.0000    0.0000 O   0  0  0  0  0  0  0  0  0  0  0  0
  1  2  1  0
  2  3  1  0
  3  4  1  0
  4  5  1  0
  5  6  2  0
  6  7  1  0
  7  8  2  0
  8  9  1  0
  8 10  1  0
 10 11  2  0
 11 12  1  0
 12 13  1  0
 12 14  1  0
 14 15  1  0
 15 16  1  0
 16 17  1  0
 17 18  1  0
 18 19  1  0
 19 20  1  0
 20 21  1  0
 21 22  1  0
 12  2  1  0
 16  3  1  0
 11  5  1  0
 22 18  1  0
M  END
>  <pIC50>  (502) 
7.77

>  <ChEMBL_ID>  (502) 
CHEMBL2367604

>  <document_journal>  (502) 
Bioorg. Med. Chem. Lett.

>  <bao_endpoint>  (502) 
BAO_0000190

>  <potential_duplicate>  (502) 
False

>  <uo_units>  (502) 
UO_0000065

>  <canonical_smiles>  (502) 
C[C@H]1[C@H]2Cc3ccc(O)cc3[C@@]1(C)CCN2C[C@@H]4CCCO4

>  <parent_molecule_chembl_id>  (502) 
CHEMBL2367604

>  <assay_type>  (502) 
F

>  <src_id>  (502) 
1

>  <ligand_efficiency>  (502) 
None

>  <standard_flag>  (502) 
True

>  <molecule_chembl_id>  (502) 
CHEMBL2367604

>  <target_organism>  (502) 
Homo sapiens

>  <standard_units>  (502) 
nM

>  <record_id>  (502) 
749751

>  <document_chembl_id>  (502) 
CHEMBL1139291

>  <bao_format>  (502) 
BAO_0000219

>  <data_validity_description>  (502) 
None

>  <activity_id>  (502) 
2263800

>  <standard_type>  (502) 
IC50

>  <target_chembl_id>  (502) 
CHEMBL233

>  <data_validity_comment>  (502) 
None

>  <published_value>  (502) 
17

>  <document_year>  (502) 
2009

>  <target_pref_name>  (502) 
Mu opioid receptor

>  <assay_chembl_id>  (502) 
CHEMBL1019888

>  <standard_relation>  (502) 
=

>  <assay_description>  (502) 
Activity at human cloned mu opioid receptor expressed in CHO cells assessed as inhibition of DAMGO-induced [35S]GTPgammaS binding

>  <published_relation>  (502) 
=

>  <standard_value>  (502) 
17

>  <qudt_units>  (502) 
http://www.openphacts.org/units/Nanomolar

>  <target_tax_id>  (502) 
9606

>  <bao_label>  (502) 
cell-based format

>  <published_units>  (502) 
nM

>  <pchembl_value>  (502) 
7.77

>  <published_type>  (502) 
IC50

>  <activity_comment>  (502) 
None

$$$$

     RDKit          

 24 27  0  0  0  0  0  0  0  0999 V2000
    0.0000    0.0000    0.0000 C   0  0  0  0  0  0  0  0  0  0  0  0
    0.0000    0.0000    0.0000 C   0  0  0  0  0  0  0  0  0  0  0  0
    0.0000    0.0000    0.0000 C   0  0  0  0  0  0  0  0  0  0  0  0
    0.0000    0.0000    0.0000 C   0  0  0  0  0  0  0  0  0  0  0  0
    0.0000    0.0000    0.0000 C   0  0  0  0  0  0  0  0  0  0  0  0
    0.0000    0.0000    0.0000 C   0  0  0  0  0  0  0  0  0  0  0  0
    0.0000    0.0000    0.0000 C   0  0  0  0  0  0  0  0  0  0  0  0
    0.0000    0.0000    0.0000 C   0  0  0  0  0  0  0  0  0  0  0  0
    0.0000    0.0000    0.0000 C   0  0  0  0  0  0  0  0  0  0  0  0
    0.0000    0.0000    0.0000 C   0  0  0  0  0  0  0  0  0  0  0  0
    0.0000    0.0000    0.0000 C   0  0  0  0  0  0  0  0  0  0  0  0
    0.0000    0.0000    0.0000 C   0  0  0  0  0  0  0  0  0  0  0  0
    0.0000    0.0000    0.0000 C   0  0  0  0  0  0  0  0  0  0  0  0
    0.0000    0.0000    0.0000 C   0  0  0  0  0  0  0  0  0  0  0  0
    0.0000    0.0000    0.0000 N   0  0  0  0  0  0  0  0  0  0  0  0
    0.0000    0.0000    0.0000 C   0  0  0  0  0  0  0  0  0  0  0  0
    0.0000    0.0000    0.0000 C   0  0  0  0  0  0  0  0  0  0  0  0
    0.0000    0.0000    0.0000 C   0  0  0  0  0  0  0  0  0  0  0  0
    0.0000    0.0000    0.0000 C   0  0  0  0  0  0  0  0  0  0  0  0
    0.0000    0.0000    0.0000 C   0  0  0  0  0  0  0  0  0  0  0  0
    0.0000    0.0000    0.0000 O   0  0  0  0  0  0  0  0  0  0  0  0
    0.0000    0.0000    0.0000 C   0  0  0  0  0  0  0  0  0  0  0  0
    0.0000    0.0000    0.0000 O   0  0  0  0  0  0  0  0  0  0  0  0
    0.0000    0.0000    0.0000 N   0  0  0  0  0  0  0  0  0  0  0  0
  1  2  1  0
  2  3  1  0
  3  4  1  0
  4  5  1  0
  5  6  2  0
  6  7  1  0
  7  8  2  0
  8  9  1  0
  9 10  2  0
 10 11  1  0
 11 12  1  0
 11 13  1  0
 13 14  1  0
 14 15  1  0
 15 16  1  0
 16 17  1  0
 17 18  1  0
 18 19  1  0
 19 20  1  0
 20 21  1  0
  8 22  1  0
 22 23  2  0
 22 24  1  0
 11  2  1  0
 15  3  1  0
 10  5  1  0
 21 17  1  0
M  END
>  <pIC50>  (503) 
7.24

>  <ChEMBL_ID>  (503) 
CHEMBL517166

>  <document_journal>  (503) 
Bioorg. Med. Chem. Lett.

>  <bao_endpoint>  (503) 
BAO_0000190

>  <potential_duplicate>  (503) 
False

>  <uo_units>  (503) 
UO_0000065

>  <canonical_smiles>  (503) 
C[C@@H]1[C@@H]2Cc3ccc(cc3[C@@]1(C)CCN2C[C@@H]4CCCO4)C(=O)N

>  <parent_molecule_chembl_id>  (503) 
CHEMBL517166

>  <assay_type>  (503) 
F

>  <src_id>  (503) 
1

>  <ligand_efficiency>  (503) 
None

>  <standard_flag>  (503) 
True

>  <molecule_chembl_id>  (503) 
CHEMBL517166

>  <target_organism>  (503) 
Homo sapiens

>  <standard_units>  (503) 
nM

>  <record_id>  (503) 
749752

>  <document_chembl_id>  (503) 
CHEMBL1139291

>  <bao_format>  (503) 
BAO_0000219

>  <data_validity_description>  (503) 
None

>  <activity_id>  (503) 
2263805

>  <standard_type>  (503) 
IC50

>  <target_chembl_id>  (503) 
CHEMBL233

>  <data_validity_comment>  (503) 
None

>  <published_value>  (503) 
58

>  <document_year>  (503) 
2009

>  <target_pref_name>  (503) 
Mu opioid receptor

>  <assay_chembl_id>  (503) 
CHEMBL1019888

>  <standard_relation>  (503) 
=

>  <assay_description>  (503) 
Activity at human cloned mu opioid receptor expressed in CHO cells assessed as inhibition of DAMGO-induced [35S]GTPgammaS binding

>  <published_relation>  (503) 
=

>  <standard_value>  (503) 
58

>  <qudt_units>  (503) 
http://www.openphacts.org/units/Nanomolar

>  <target_tax_id>  (503) 
9606

>  <bao_label>  (503) 
cell-based format

>  <published_units>  (503) 
nM

>  <pchembl_value>  (503) 
7.24

>  <published_type>  (503) 
IC50

>  <activity_comment>  (503) 
None

$$$$

     RDKit          

 24 27  0  0  0  0  0  0  0  0999 V2000
    0.0000    0.0000    0.0000 C   0  0  0  0  0  0  0  0  0  0  0  0
    0.0000    0.0000    0.0000 C   0  0  0  0  0  0  0  0  0  0  0  0
    0.0000    0.0000    0.0000 C   0  0  0  0  0  0  0  0  0  0  0  0
    0.0000    0.0000    0.0000 C   0  0  0  0  0  0  0  0  0  0  0  0
    0.0000    0.0000    0.0000 C   0  0  0  0  0  0  0  0  0  0  0  0
    0.0000    0.0000    0.0000 C   0  0  0  0  0  0  0  0  0  0  0  0
    0.0000    0.0000    0.0000 C   0  0  0  0  0  0  0  0  0  0  0  0
    0.0000    0.0000    0.0000 C   0  0  0  0  0  0  0  0  0  0  0  0
    0.0000    0.0000    0.0000 C   0  0  0  0  0  0  0  0  0  0  0  0
    0.0000    0.0000    0.0000 C   0  0  0  0  0  0  0  0  0  0  0  0
    0.0000    0.0000    0.0000 C   0  0  0  0  0  0  0  0  0  0  0  0
    0.0000    0.0000    0.0000 C   0  0  0  0  0  0  0  0  0  0  0  0
    0.0000    0.0000    0.0000 C   0  0  0  0  0  0  0  0  0  0  0  0
    0.0000    0.0000    0.0000 C   0  0  0  0  0  0  0  0  0  0  0  0
    0.0000    0.0000    0.0000 N   0  0  0  0  0  0  0  0  0  0  0  0
    0.0000    0.0000    0.0000 C   0  0  0  0  0  0  0  0  0  0  0  0
    0.0000    0.0000    0.0000 C   0  0  0  0  0  0  0  0  0  0  0  0
    0.0000    0.0000    0.0000 C   0  0  0  0  0  0  0  0  0  0  0  0
    0.0000    0.0000    0.0000 C   0  0  0  0  0  0  0  0  0  0  0  0
    0.0000    0.0000    0.0000 C   0  0  0  0  0  0  0  0  0  0  0  0
    0.0000    0.0000    0.0000 O   0  0  0  0  0  0  0  0  0  0  0  0
    0.0000    0.0000    0.0000 C   0  0  0  0  0  0  0  0  0  0  0  0
    0.0000    0.0000    0.0000 O   0  0  0  0  0  0  0  0  0  0  0  0
    0.0000    0.0000    0.0000 N   0  0  0  0  0  0  0  0  0  0  0  0
  1  2  1  0
  2  3  1  0
  3  4  1  0
  4  5  1  0
  5  6  2  0
  6  7  1  0
  7  8  2  0
  8  9  1  0
  9 10  2  0
 10 11  1  0
 11 12  1  0
 11 13  1  0
 13 14  1  0
 14 15  1  0
 15 16  1  0
 16 17  1  0
 17 18  1  0
 18 19  1  0
 19 20  1  0
 20 21  1  0
  8 22  1  0
 22 23  2  0
 22 24  1  0
 11  2  1  0
 15  3  1  0
 10  5  1  0
 21 17  1  0
M  END
>  <pIC50>  (504) 
6.6

>  <ChEMBL_ID>  (504) 
CHEMBL459746

>  <document_journal>  (504) 
Bioorg. Med. Chem. Lett.

>  <bao_endpoint>  (504) 
BAO_0000190

>  <potential_duplicate>  (504) 
False

>  <uo_units>  (504) 
UO_0000065

>  <canonical_smiles>  (504) 
C[C@@H]1[C@@H]2Cc3ccc(cc3[C@@]1(C)CCN2C[C@H]4CCCO4)C(=O)N

>  <parent_molecule_chembl_id>  (504) 
CHEMBL459746

>  <assay_type>  (504) 
F

>  <src_id>  (504) 
1

>  <ligand_efficiency>  (504) 
None

>  <standard_flag>  (504) 
True

>  <molecule_chembl_id>  (504) 
CHEMBL459746

>  <target_organism>  (504) 
Homo sapiens

>  <standard_units>  (504) 
nM

>  <record_id>  (504) 
749666

>  <document_chembl_id>  (504) 
CHEMBL1139291

>  <bao_format>  (504) 
BAO_0000219

>  <data_validity_description>  (504) 
None

>  <activity_id>  (504) 
2263815

>  <standard_type>  (504) 
IC50

>  <target_chembl_id>  (504) 
CHEMBL233

>  <data_validity_comment>  (504) 
None

>  <published_value>  (504) 
250

>  <document_year>  (504) 
2009

>  <target_pref_name>  (504) 
Mu opioid receptor

>  <assay_chembl_id>  (504) 
CHEMBL1019888

>  <standard_relation>  (504) 
=

>  <assay_description>  (504) 
Activity at human cloned mu opioid receptor expressed in CHO cells assessed as inhibition of DAMGO-induced [35S]GTPgammaS binding

>  <published_relation>  (504) 
=

>  <standard_value>  (504) 
250

>  <qudt_units>  (504) 
http://www.openphacts.org/units/Nanomolar

>  <target_tax_id>  (504) 
9606

>  <bao_label>  (504) 
cell-based format

>  <published_units>  (504) 
nM

>  <pchembl_value>  (504) 
6.6

>  <published_type>  (504) 
IC50

>  <activity_comment>  (504) 
None

$$$$

     RDKit          

 21 24  0  0  0  0  0  0  0  0999 V2000
    0.0000    0.0000    0.0000 C   0  0  0  0  0  0  0  0  0  0  0  0
    0.0000    0.0000    0.0000 C   0  0  0  0  0  0  0  0  0  0  0  0
    0.0000    0.0000    0.0000 C   0  0  0  0  0  0  0  0  0  0  0  0
    0.0000    0.0000    0.0000 N   0  0  0  0  0  0  0  0  0  0  0  0
    0.0000    0.0000    0.0000 C   0  0  0  0  0  0  0  0  0  0  0  0
    0.0000    0.0000    0.0000 C   0  0  0  0  0  0  0  0  0  0  0  0
    0.0000    0.0000    0.0000 C   0  0  0  0  0  0  0  0  0  0  0  0
    0.0000    0.0000    0.0000 C   0  0  0  0  0  0  0  0  0  0  0  0
    0.0000    0.0000    0.0000 C   0  0  0  0  0  0  0  0  0  0  0  0
    0.0000    0.0000    0.0000 C   0  0  0  0  0  0  0  0  0  0  0  0
    0.0000    0.0000    0.0000 C   0  0  0  0  0  0  0  0  0  0  0  0
    0.0000    0.0000    0.0000 C   0  0  0  0  0  0  0  0  0  0  0  0
    0.0000    0.0000    0.0000 C   0  0  0  0  0  0  0  0  0  0  0  0
    0.0000    0.0000    0.0000 C   0  0  0  0  0  0  0  0  0  0  0  0
    0.0000    0.0000    0.0000 C   0  0  0  0  0  0  0  0  0  0  0  0
    0.0000    0.0000    0.0000 O   0  0  0  0  0  0  0  0  0  0  0  0
    0.0000    0.0000    0.0000 C   0  0  0  0  0  0  0  0  0  0  0  0
    0.0000    0.0000    0.0000 C   0  0  0  0  0  0  0  0  0  0  0  0
    0.0000    0.0000    0.0000 C   0  0  0  0  0  0  0  0  0  0  0  0
    0.0000    0.0000    0.0000 C   0  0  0  0  0  0  0  0  0  0  0  0
    0.0000    0.0000    0.0000 O   0  0  0  0  0  0  0  0  0  0  0  0
  1  2  1  0
  2  3  1  0
  3  4  1  0
  4  5  1  0
  5  6  1  0
  6  7  1  0
  7  8  1  0
  4  9  1  0
  9 10  1  0
 10 11  1  0
 11 12  1  0
 11 13  1  0
 13 14  2  0
 14 15  1  0
 15 16  1  0
 15 17  2  0
 17 18  1  0
 18 19  2  0
 19 20  1  0
 20 21  2  0
 11  2  1  0
 20  3  1  0
  8  6  1  0
 19 13  1  0
M  END
>  <pIC50>  (505) 
6.89

>  <ChEMBL_ID>  (505) 
CHEMBL2107292

>  <document_journal>  (505) 
Bioorg. Med. Chem. Lett.

>  <bao_endpoint>  (505) 
BAO_0000190

>  <potential_duplicate>  (505) 
False

>  <uo_units>  (505) 
UO_0000065

>  <canonical_smiles>  (505) 
C[C@H]1[C@@H]2N(CC3CC3)CC[C@@]1(C)c4cc(O)ccc4C2=O

>  <parent_molecule_chembl_id>  (505) 
CHEMBL2107292

>  <assay_type>  (505) 
F

>  <src_id>  (505) 
1

>  <ligand_efficiency>  (505) 
None

>  <standard_flag>  (505) 
True

>  <molecule_chembl_id>  (505) 
CHEMBL2107292

>  <target_organism>  (505) 
Homo sapiens

>  <standard_units>  (505) 
nM

>  <record_id>  (505) 
749667

>  <document_chembl_id>  (505) 
CHEMBL1139291

>  <bao_format>  (505) 
BAO_0000219

>  <data_validity_description>  (505) 
None

>  <activity_id>  (505) 
2263821

>  <standard_type>  (505) 
IC50

>  <target_chembl_id>  (505) 
CHEMBL233

>  <data_validity_comment>  (505) 
None

>  <published_value>  (505) 
130

>  <document_year>  (505) 
2009

>  <target_pref_name>  (505) 
Mu opioid receptor

>  <assay_chembl_id>  (505) 
CHEMBL1019888

>  <standard_relation>  (505) 
=

>  <assay_description>  (505) 
Activity at human cloned mu opioid receptor expressed in CHO cells assessed as inhibition of DAMGO-induced [35S]GTPgammaS binding

>  <published_relation>  (505) 
=

>  <standard_value>  (505) 
130

>  <qudt_units>  (505) 
http://www.openphacts.org/units/Nanomolar

>  <target_tax_id>  (505) 
9606

>  <bao_label>  (505) 
cell-based format

>  <published_units>  (505) 
nM

>  <pchembl_value>  (505) 
6.89

>  <published_type>  (505) 
IC50

>  <activity_comment>  (505) 
None

$$$$

     RDKit          

 23 26  0  0  0  0  0  0  0  0999 V2000
    0.0000    0.0000    0.0000 C   0  0  0  0  0  0  0  0  0  0  0  0
    0.0000    0.0000    0.0000 C   0  0  0  0  0  0  0  0  0  0  0  0
    0.0000    0.0000    0.0000 C   0  0  0  0  0  0  0  0  0  0  0  0
    0.0000    0.0000    0.0000 N   0  0  0  0  0  0  0  0  0  0  0  0
    0.0000    0.0000    0.0000 C   0  0  0  0  0  0  0  0  0  0  0  0
    0.0000    0.0000    0.0000 C   0  0  0  0  0  0  0  0  0  0  0  0
    0.0000    0.0000    0.0000 C   0  0  0  0  0  0  0  0  0  0  0  0
    0.0000    0.0000    0.0000 C   0  0  0  0  0  0  0  0  0  0  0  0
    0.0000    0.0000    0.0000 C   0  0  0  0  0  0  0  0  0  0  0  0
    0.0000    0.0000    0.0000 C   0  0  0  0  0  0  0  0  0  0  0  0
    0.0000    0.0000    0.0000 C   0  0  0  0  0  0  0  0  0  0  0  0
    0.0000    0.0000    0.0000 C   0  0  0  0  0  0  0  0  0  0  0  0
    0.0000    0.0000    0.0000 C   0  0  0  0  0  0  0  0  0  0  0  0
    0.0000    0.0000    0.0000 C   0  0  0  0  0  0  0  0  0  0  0  0
    0.0000    0.0000    0.0000 C   0  0  0  0  0  0  0  0  0  0  0  0
    0.0000    0.0000    0.0000 C   0  0  0  0  0  0  0  0  0  0  0  0
    0.0000    0.0000    0.0000 C   0  0  0  0  0  0  0  0  0  0  0  0
    0.0000    0.0000    0.0000 C   0  0  0  0  0  0  0  0  0  0  0  0
    0.0000    0.0000    0.0000 C   0  0  0  0  0  0  0  0  0  0  0  0
    0.0000    0.0000    0.0000 O   0  0  0  0  0  0  0  0  0  0  0  0
    0.0000    0.0000    0.0000 C   0  0  0  0  0  0  0  0  0  0  0  0
    0.0000    0.0000    0.0000 O   0  0  0  0  0  0  0  0  0  0  0  0
    0.0000    0.0000    0.0000 N   0  0  0  0  0  0  0  0  0  0  0  0
  1  2  1  0
  2  3  1  0
  3  4  1  0
  4  5  1  0
  5  6  1  0
  6  7  1  0
  7  8  1  0
  4  9  1  0
  9 10  1  0
 10 11  1  0
 11 12  1  0
 11 13  1  0
 13 14  2  0
 14 15  1  0
 15 16  2  0
 16 17  1  0
 17 18  2  0
 18 19  1  0
 19 20  2  0
 15 21  1  0
 21 22  2  0
 21 23  1  0
 11  2  1  0
 19  3  1  0
  8  6  1  0
 18 13  1  0
M  END
>  <pIC50>  (506) 
6.82

>  <ChEMBL_ID>  (506) 
CHEMBL511691

>  <document_journal>  (506) 
Bioorg. Med. Chem. Lett.

>  <bao_endpoint>  (506) 
BAO_0000190

>  <potential_duplicate>  (506) 
False

>  <uo_units>  (506) 
UO_0000065

>  <canonical_smiles>  (506) 
CC1C2N(CC3CC3)CCC1(C)c4cc(ccc4C2=O)C(=O)N

>  <parent_molecule_chembl_id>  (506) 
CHEMBL511691

>  <assay_type>  (506) 
F

>  <src_id>  (506) 
1

>  <ligand_efficiency>  (506) 
None

>  <standard_flag>  (506) 
True

>  <molecule_chembl_id>  (506) 
CHEMBL511691

>  <target_organism>  (506) 
Homo sapiens

>  <standard_units>  (506) 
nM

>  <record_id>  (506) 
749668

>  <document_chembl_id>  (506) 
CHEMBL1139291

>  <bao_format>  (506) 
BAO_0000219

>  <data_validity_description>  (506) 
None

>  <activity_id>  (506) 
2263827

>  <standard_type>  (506) 
IC50

>  <target_chembl_id>  (506) 
CHEMBL233

>  <data_validity_comment>  (506) 
None

>  <published_value>  (506) 
150

>  <document_year>  (506) 
2009

>  <target_pref_name>  (506) 
Mu opioid receptor

>  <assay_chembl_id>  (506) 
CHEMBL1019888

>  <standard_relation>  (506) 
=

>  <assay_description>  (506) 
Activity at human cloned mu opioid receptor expressed in CHO cells assessed as inhibition of DAMGO-induced [35S]GTPgammaS binding

>  <published_relation>  (506) 
=

>  <standard_value>  (506) 
150

>  <qudt_units>  (506) 
http://www.openphacts.org/units/Nanomolar

>  <target_tax_id>  (506) 
9606

>  <bao_label>  (506) 
cell-based format

>  <published_units>  (506) 
nM

>  <pchembl_value>  (506) 
6.82

>  <published_type>  (506) 
IC50

>  <activity_comment>  (506) 
None

$$$$

     RDKit          

 24 28  0  0  0  0  0  0  0  0999 V2000
    0.0000    0.0000    0.0000 O   0  0  0  0  0  0  0  0  0  0  0  0
    0.0000    0.0000    0.0000 C   0  0  0  0  0  0  0  0  0  0  0  0
    0.0000    0.0000    0.0000 C   0  0  0  0  0  0  0  0  0  0  0  0
    0.0000    0.0000    0.0000 C   0  0  0  0  0  0  0  0  0  0  0  0
    0.0000    0.0000    0.0000 C   0  0  0  0  0  0  0  0  0  0  0  0
    0.0000    0.0000    0.0000 C   0  0  0  0  0  0  0  0  0  0  0  0
    0.0000    0.0000    0.0000 C   0  0  0  0  0  0  0  0  0  0  0  0
    0.0000    0.0000    0.0000 N   0  0  0  0  0  0  0  0  0  0  0  0
    0.0000    0.0000    0.0000 C   0  0  0  0  0  0  0  0  0  0  0  0
    0.0000    0.0000    0.0000 C   0  0  0  0  0  0  0  0  0  0  0  0
    0.0000    0.0000    0.0000 C   0  0  0  0  0  0  0  0  0  0  0  0
    0.0000    0.0000    0.0000 C   0  0  0  0  0  0  0  0  0  0  0  0
    0.0000    0.0000    0.0000 C   0  0  0  0  0  0  0  0  0  0  0  0
    0.0000    0.0000    0.0000 C   0  0  0  0  0  0  0  0  0  0  0  0
    0.0000    0.0000    0.0000 C   0  0  0  0  0  0  0  0  0  0  0  0
    0.0000    0.0000    0.0000 C   0  0  0  0  0  0  0  0  0  0  0  0
    0.0000    0.0000    0.0000 C   0  0  0  0  0  0  0  0  0  0  0  0
    0.0000    0.0000    0.0000 C   0  0  0  0  0  0  0  0  0  0  0  0
    0.0000    0.0000    0.0000 C   0  0  0  0  0  0  0  0  0  0  0  0
    0.0000    0.0000    0.0000 C   0  0  0  0  0  0  0  0  0  0  0  0
    0.0000    0.0000    0.0000 C   0  0  0  0  0  0  0  0  0  0  0  0
    0.0000    0.0000    0.0000 O   0  0  0  0  0  0  0  0  0  0  0  0
    0.0000    0.0000    0.0000 C   0  0  0  0  0  0  0  0  0  0  0  0
    0.0000    0.0000    0.0000 C   0  0  0  0  0  0  0  0  0  0  0  0
  1  2  1  0
  2  3  2  0
  3  4  1  0
  4  5  2  0
  5  6  1  0
  6  7  1  0
  7  8  1  0
  8  9  1  0
  9 10  1  0
 10 11  1  0
 11 12  1  0
 12 13  1  0
  8 14  1  0
 14 15  1  0
 15 16  1  0
 16 17  1  0
 17 18  1  0
 18 19  1  0
 19 20  1  0
 20 21  1  0
 21 22  1  0
 16 23  1  0
 23 24  2  0
 24  2  1  0
 23  5  1  0
 21  7  1  0
 13 10  1  0
 21 16  1  0
M  END
>  <pIC50>  (507) 
7.85

>  <ChEMBL_ID>  (507) 
CHEMBL33986

>  <document_journal>  (507) 
Bioorg. Med. Chem. Lett.

>  <bao_endpoint>  (507) 
BAO_0000190

>  <potential_duplicate>  (507) 
False

>  <uo_units>  (507) 
UO_0000065

>  <canonical_smiles>  (507) 
Oc1ccc2C[C@H]3N(CC4CCC4)CC[C@@]5(CCCC[C@@]35O)c2c1

>  <parent_molecule_chembl_id>  (507) 
CHEMBL33986

>  <assay_type>  (507) 
F

>  <src_id>  (507) 
1

>  <ligand_efficiency>  (507) 
None

>  <standard_flag>  (507) 
True

>  <molecule_chembl_id>  (507) 
CHEMBL33986

>  <target_organism>  (507) 
Homo sapiens

>  <standard_units>  (507) 
nM

>  <record_id>  (507) 
749669

>  <document_chembl_id>  (507) 
CHEMBL1139291

>  <bao_format>  (507) 
BAO_0000219

>  <data_validity_description>  (507) 
None

>  <activity_id>  (507) 
2263832

>  <standard_type>  (507) 
IC50

>  <target_chembl_id>  (507) 
CHEMBL233

>  <data_validity_comment>  (507) 
None

>  <published_value>  (507) 
14

>  <document_year>  (507) 
2009

>  <target_pref_name>  (507) 
Mu opioid receptor

>  <assay_chembl_id>  (507) 
CHEMBL1019888

>  <standard_relation>  (507) 
=

>  <assay_description>  (507) 
Activity at human cloned mu opioid receptor expressed in CHO cells assessed as inhibition of DAMGO-induced [35S]GTPgammaS binding

>  <published_relation>  (507) 
=

>  <standard_value>  (507) 
14

>  <qudt_units>  (507) 
http://www.openphacts.org/units/Nanomolar

>  <target_tax_id>  (507) 
9606

>  <bao_label>  (507) 
cell-based format

>  <published_units>  (507) 
nM

>  <pchembl_value>  (507) 
7.85

>  <published_type>  (507) 
IC50

>  <activity_comment>  (507) 
None

$$$$

     RDKit          

 26 30  0  0  0  0  0  0  0  0999 V2000
    0.0000    0.0000    0.0000 N   0  0  0  0  0  0  0  0  0  0  0  0
    0.0000    0.0000    0.0000 C   0  0  0  0  0  0  0  0  0  0  0  0
    0.0000    0.0000    0.0000 O   0  0  0  0  0  0  0  0  0  0  0  0
    0.0000    0.0000    0.0000 C   0  0  0  0  0  0  0  0  0  0  0  0
    0.0000    0.0000    0.0000 C   0  0  0  0  0  0  0  0  0  0  0  0
    0.0000    0.0000    0.0000 C   0  0  0  0  0  0  0  0  0  0  0  0
    0.0000    0.0000    0.0000 C   0  0  0  0  0  0  0  0  0  0  0  0
    0.0000    0.0000    0.0000 C   0  0  0  0  0  0  0  0  0  0  0  0
    0.0000    0.0000    0.0000 C   0  0  0  0  0  0  0  0  0  0  0  0
    0.0000    0.0000    0.0000 N   0  0  0  0  0  0  0  0  0  0  0  0
    0.0000    0.0000    0.0000 C   0  0  0  0  0  0  0  0  0  0  0  0
    0.0000    0.0000    0.0000 C   0  0  0  0  0  0  0  0  0  0  0  0
    0.0000    0.0000    0.0000 C   0  0  0  0  0  0  0  0  0  0  0  0
    0.0000    0.0000    0.0000 C   0  0  0  0  0  0  0  0  0  0  0  0
    0.0000    0.0000    0.0000 C   0  0  0  0  0  0  0  0  0  0  0  0
    0.0000    0.0000    0.0000 C   0  0  0  0  0  0  0  0  0  0  0  0
    0.0000    0.0000    0.0000 C   0  0  0  0  0  0  0  0  0  0  0  0
    0.0000    0.0000    0.0000 C   0  0  0  0  0  0  0  0  0  0  0  0
    0.0000    0.0000    0.0000 C   0  0  0  0  0  0  0  0  0  0  0  0
    0.0000    0.0000    0.0000 C   0  0  0  0  0  0  0  0  0  0  0  0
    0.0000    0.0000    0.0000 C   0  0  0  0  0  0  0  0  0  0  0  0
    0.0000    0.0000    0.0000 C   0  0  0  0  0  0  0  0  0  0  0  0
    0.0000    0.0000    0.0000 C   0  0  0  0  0  0  0  0  0  0  0  0
    0.0000    0.0000    0.0000 O   0  0  0  0  0  0  0  0  0  0  0  0
    0.0000    0.0000    0.0000 C   0  0  0  0  0  0  0  0  0  0  0  0
    0.0000    0.0000    0.0000 C   0  0  0  0  0  0  0  0  0  0  0  0
  1  2  1  0
  2  3  2  0
  2  4  1  0
  4  5  2  0
  5  6  1  0
  6  7  2  0
  7  8  1  0
  8  9  1  0
  9 10  1  0
 10 11  1  0
 11 12  1  0
 12 13  1  0
 13 14  1  0
 14 15  1  0
 10 16  1  0
 16 17  1  0
 17 18  1  0
 18 19  1  0
 19 20  1  0
 20 21  1  0
 21 22  1  0
 22 23  1  0
 23 24  1  0
 18 25  1  0
 25 26  2  0
 26  4  1  0
 25  7  1  0
 23  9  1  0
 15 12  1  0
 23 18  1  0
M  END
>  <pIC50>  (508) 
7.52

>  <ChEMBL_ID>  (508) 
CHEMBL517779

>  <document_journal>  (508) 
Bioorg. Med. Chem. Lett.

>  <bao_endpoint>  (508) 
BAO_0000190

>  <potential_duplicate>  (508) 
False

>  <uo_units>  (508) 
UO_0000065

>  <canonical_smiles>  (508) 
NC(=O)c1ccc2C[C@H]3N(CC4CCC4)CC[C@@]5(CCCC[C@@]35O)c2c1

>  <parent_molecule_chembl_id>  (508) 
CHEMBL517779

>  <assay_type>  (508) 
F

>  <src_id>  (508) 
1

>  <ligand_efficiency>  (508) 
None

>  <standard_flag>  (508) 
True

>  <molecule_chembl_id>  (508) 
CHEMBL517779

>  <target_organism>  (508) 
Homo sapiens

>  <standard_units>  (508) 
nM

>  <record_id>  (508) 
749754

>  <document_chembl_id>  (508) 
CHEMBL1139291

>  <bao_format>  (508) 
BAO_0000219

>  <data_validity_description>  (508) 
None

>  <activity_id>  (508) 
2263837

>  <standard_type>  (508) 
IC50

>  <target_chembl_id>  (508) 
CHEMBL233

>  <data_validity_comment>  (508) 
None

>  <published_value>  (508) 
30

>  <document_year>  (508) 
2009

>  <target_pref_name>  (508) 
Mu opioid receptor

>  <assay_chembl_id>  (508) 
CHEMBL1019888

>  <standard_relation>  (508) 
=

>  <assay_description>  (508) 
Activity at human cloned mu opioid receptor expressed in CHO cells assessed as inhibition of DAMGO-induced [35S]GTPgammaS binding

>  <published_relation>  (508) 
=

>  <standard_value>  (508) 
30

>  <qudt_units>  (508) 
http://www.openphacts.org/units/Nanomolar

>  <target_tax_id>  (508) 
9606

>  <bao_label>  (508) 
cell-based format

>  <published_units>  (508) 
nM

>  <pchembl_value>  (508) 
7.52

>  <published_type>  (508) 
IC50

>  <activity_comment>  (508) 
None

$$$$

     RDKit          

 45 49  0  0  0  0  0  0  0  0999 V2000
    0.0000    0.0000    0.0000 N   0  0  0  0  0  0  0  0  0  0  0  0
    0.0000    0.0000    0.0000 C   0  0  0  0  0  0  0  0  0  0  0  0
    0.0000    0.0000    0.0000 C   0  0  0  0  0  0  0  0  0  0  0  0
    0.0000    0.0000    0.0000 C   0  0  0  0  0  0  0  0  0  0  0  0
    0.0000    0.0000    0.0000 C   0  0  0  0  0  0  0  0  0  0  0  0
    0.0000    0.0000    0.0000 C   0  0  0  0  0  0  0  0  0  0  0  0
    0.0000    0.0000    0.0000 C   0  0  0  0  0  0  0  0  0  0  0  0
    0.0000    0.0000    0.0000 O   0  0  0  0  0  0  0  0  0  0  0  0
    0.0000    0.0000    0.0000 C   0  0  0  0  0  0  0  0  0  0  0  0
    0.0000    0.0000    0.0000 C   0  0  0  0  0  0  0  0  0  0  0  0
    0.0000    0.0000    0.0000 C   0  0  0  0  0  0  0  0  0  0  0  0
    0.0000    0.0000    0.0000 O   0  0  0  0  0  0  0  0  0  0  0  0
    0.0000    0.0000    0.0000 N   0  0  0  0  0  0  0  0  0  0  0  0
    0.0000    0.0000    0.0000 C   0  0  0  0  0  0  0  0  0  0  0  0
    0.0000    0.0000    0.0000 C   0  0  0  0  0  0  0  0  0  0  0  0
    0.0000    0.0000    0.0000 C   0  0  0  0  0  0  0  0  0  0  0  0
    0.0000    0.0000    0.0000 C   0  0  0  0  0  0  0  0  0  0  0  0
    0.0000    0.0000    0.0000 C   0  0  0  0  0  0  0  0  0  0  0  0
    0.0000    0.0000    0.0000 O   0  0  0  0  0  0  0  0  0  0  0  0
    0.0000    0.0000    0.0000 N   0  0  0  0  0  0  0  0  0  0  0  0
    0.0000    0.0000    0.0000 C   0  0  0  0  0  0  0  0  0  0  0  0
    0.0000    0.0000    0.0000 C   0  0  0  0  0  0  0  0  0  0  0  0
    0.0000    0.0000    0.0000 C   0  0  0  0  0  0  0  0  0  0  0  0
    0.0000    0.0000    0.0000 C   0  0  0  0  0  0  0  0  0  0  0  0
    0.0000    0.0000    0.0000 N   0  0  0  0  0  0  0  0  0  0  0  0
    0.0000    0.0000    0.0000 C   0  0  0  0  0  0  0  0  0  0  0  0
    0.0000    0.0000    0.0000 C   0  0  0  0  0  0  0  0  0  0  0  0
    0.0000    0.0000    0.0000 C   0  0  0  0  0  0  0  0  0  0  0  0
    0.0000    0.0000    0.0000 C   0  0  0  0  0  0  0  0  0  0  0  0
    0.0000    0.0000    0.0000 C   0  0  0  0  0  0  0  0  0  0  0  0
    0.0000    0.0000    0.0000 C   0  0  0  0  0  0  0  0  0  0  0  0
    0.0000    0.0000    0.0000 C   0  0  0  0  0  0  0  0  0  0  0  0
    0.0000    0.0000    0.0000 O   0  0  0  0  0  0  0  0  0  0  0  0
    0.0000    0.0000    0.0000 N   0  0  0  0  0  0  0  0  0  0  0  0
    0.0000    0.0000    0.0000 C   0  0  0  0  0  0  0  0  0  0  0  0
    0.0000    0.0000    0.0000 C   0  0  0  0  0  0  0  0  0  0  0  0
    0.0000    0.0000    0.0000 C   0  0  0  0  0  0  0  0  0  0  0  0
    0.0000    0.0000    0.0000 C   0  0  0  0  0  0  0  0  0  0  0  0
    0.0000    0.0000    0.0000 C   0  0  0  0  0  0  0  0  0  0  0  0
    0.0000    0.0000    0.0000 C   0  0  0  0  0  0  0  0  0  0  0  0
    0.0000    0.0000    0.0000 C   0  0  0  0  0  0  0  0  0  0  0  0
    0.0000    0.0000    0.0000 C   0  0  0  0  0  0  0  0  0  0  0  0
    0.0000    0.0000    0.0000 C   0  0  0  0  0  0  0  0  0  0  0  0
    0.0000    0.0000    0.0000 O   0  0  0  0  0  0  0  0  0  0  0  0
    0.0000    0.0000    0.0000 N   0  0  0  0  0  0  0  0  0  0  0  0
  1  2  1  0
  2  3  1  0
  3  4  1  0
  4  5  2  0
  5  6  1  0
  6  7  2  0
  7  8  1  0
  7  9  1  0
  9 10  2  0
  2 11  1  0
 11 12  2  0
 11 13  1  0
 13 14  1  0
 14 15  1  0
 15 16  1  0
 16 17  1  0
 17 18  1  0
 18 19  2  0
 18 20  1  0
 20 21  1  0
 21 22  1  0
 22 23  1  0
 23 24  2  0
 24 25  1  0
 25 26  1  0
 26 27  2  0
 27 28  1  0
 28 29  2  0
 29 30  1  0
 30 31  2  0
 21 32  1  0
 32 33  2  0
 32 34  1  0
 34 35  1  0
 35 36  1  0
 36 37  1  0
 37 38  2  0
 38 39  1  0
 39 40  2  0
 40 41  1  0
 41 42  2  0
 35 43  1  0
 43 44  2  0
 43 45  1  0
 10  4  1  0
 17 13  1  0
 31 23  1  0
 31 26  1  0
 42 37  1  0
M  END
>  <pIC50>  (509) 
7.84333333333

>  <ChEMBL_ID>  (509) 
CHEMBL316446

>  <document_journal>  (509) 
Bioorg. Med. Chem.

>  <bao_endpoint>  (509) 
BAO_0000190

>  <potential_duplicate>  (509) 
False

>  <uo_units>  (509) 
UO_0000065

>  <canonical_smiles>  (509) 
N[C@@H](Cc1ccc(O)cc1)C(=O)N2CCC[C@H]2C(=O)N[C@@H](Cc3c[nH]c4ccccc34)C(=O)N[C@@H](Cc5ccccc5)C(=O)N

>  <parent_molecule_chembl_id>  (509) 
CHEMBL316446

>  <assay_type>  (509) 
F

>  <src_id>  (509) 
1

>  <ligand_efficiency>  (509) 
None

>  <standard_flag>  (509) 
True

>  <molecule_chembl_id>  (509) 
CHEMBL316446

>  <target_organism>  (509) 
Homo sapiens

>  <standard_units>  (509) 
nM

>  <record_id>  (509) 
795941

>  <document_chembl_id>  (509) 
CHEMBL1150362

>  <bao_format>  (509) 
BAO_0000219

>  <data_validity_description>  (509) 
None

>  <activity_id>  (509) 
2339516

>  <standard_type>  (509) 
IC50

>  <target_chembl_id>  (509) 
CHEMBL233

>  <data_validity_comment>  (509) 
None

>  <published_value>  (509) 
14

>  <document_year>  (509) 
2008

>  <target_pref_name>  (509) 
Mu opioid receptor

>  <assay_chembl_id>  (509) 
CHEMBL955670

>  <standard_relation>  (509) 
=

>  <assay_description>  (509) 
Agonist activity at mu opioid receptor in human SHSY5Y cells assessed as inhibition of forskolin-stimulated cAMP production

>  <published_relation>  (509) 
=

>  <standard_value>  (509) 
14

>  <qudt_units>  (509) 
http://www.openphacts.org/units/Nanomolar

>  <target_tax_id>  (509) 
9606

>  <bao_label>  (509) 
cell-based format

>  <published_units>  (509) 
nM

>  <pchembl_value>  (509) 
7.85

>  <published_type>  (509) 
IC50

>  <activity_comment>  (509) 
None

$$$$

     RDKit          

 57 61  0  0  0  0  0  0  0  0999 V2000
    0.0000    0.0000    0.0000 C   0  0  0  0  0  0  0  0  0  0  0  0
    0.0000    0.0000    0.0000 C   0  0  0  0  0  0  0  0  0  0  0  0
    0.0000    0.0000    0.0000 C   0  0  0  0  0  0  0  0  0  0  0  0
    0.0000    0.0000    0.0000 C   0  0  0  0  0  0  0  0  0  0  0  0
    0.0000    0.0000    0.0000 C   0  0  0  0  0  0  0  0  0  0  0  0
    0.0000    0.0000    0.0000 C   0  0  0  0  0  0  0  0  0  0  0  0
    0.0000    0.0000    0.0000 C   0  0  0  0  0  0  0  0  0  0  0  0
    0.0000    0.0000    0.0000 N   0  0  0  0  0  0  0  0  0  0  0  0
    0.0000    0.0000    0.0000 C   0  0  0  0  0  0  0  0  0  0  0  0
    0.0000    0.0000    0.0000 O   0  0  0  0  0  0  0  0  0  0  0  0
    0.0000    0.0000    0.0000 N   0  0  0  0  0  0  0  0  0  0  0  0
    0.0000    0.0000    0.0000 C   0  0  0  0  0  0  0  0  0  0  0  0
    0.0000    0.0000    0.0000 C   0  0  0  0  0  0  0  0  0  0  0  0
    0.0000    0.0000    0.0000 C   0  0  0  0  0  0  0  0  0  0  0  0
    0.0000    0.0000    0.0000 C   0  0  0  0  0  0  0  0  0  0  0  0
    0.0000    0.0000    0.0000 C   0  0  0  0  0  0  0  0  0  0  0  0
    0.0000    0.0000    0.0000 C   0  0  0  0  0  0  0  0  0  0  0  0
    0.0000    0.0000    0.0000 C   0  0  0  0  0  0  0  0  0  0  0  0
    0.0000    0.0000    0.0000 O   0  0  0  0  0  0  0  0  0  0  0  0
    0.0000    0.0000    0.0000 C   0  0  0  0  0  0  0  0  0  0  0  0
    0.0000    0.0000    0.0000 C   0  0  0  0  0  0  0  0  0  0  0  0
    0.0000    0.0000    0.0000 C   0  0  0  0  0  0  0  0  0  0  0  0
    0.0000    0.0000    0.0000 C   0  0  0  0  0  0  0  0  0  0  0  0
    0.0000    0.0000    0.0000 O   0  0  0  0  0  0  0  0  0  0  0  0
    0.0000    0.0000    0.0000 N   0  0  0  0  0  0  0  0  0  0  0  0
    0.0000    0.0000    0.0000 C   0  0  0  0  0  0  0  0  0  0  0  0
    0.0000    0.0000    0.0000 C   0  0  0  0  0  0  0  0  0  0  0  0
    0.0000    0.0000    0.0000 C   0  0  0  0  0  0  0  0  0  0  0  0
    0.0000    0.0000    0.0000 C   0  0  0  0  0  0  0  0  0  0  0  0
    0.0000    0.0000    0.0000 C   0  0  0  0  0  0  0  0  0  0  0  0
    0.0000    0.0000    0.0000 O   0  0  0  0  0  0  0  0  0  0  0  0
    0.0000    0.0000    0.0000 N   0  0  0  0  0  0  0  0  0  0  0  0
    0.0000    0.0000    0.0000 C   0  0  0  0  0  0  0  0  0  0  0  0
    0.0000    0.0000    0.0000 C   0  0  0  0  0  0  0  0  0  0  0  0
    0.0000    0.0000    0.0000 C   0  0  0  0  0  0  0  0  0  0  0  0
    0.0000    0.0000    0.0000 C   0  0  0  0  0  0  0  0  0  0  0  0
    0.0000    0.0000    0.0000 N   0  0  0  0  0  0  0  0  0  0  0  0
    0.0000    0.0000    0.0000 C   0  0  0  0  0  0  0  0  0  0  0  0
    0.0000    0.0000    0.0000 C   0  0  0  0  0  0  0  0  0  0  0  0
    0.0000    0.0000    0.0000 C   0  0  0  0  0  0  0  0  0  0  0  0
    0.0000    0.0000    0.0000 C   0  0  0  0  0  0  0  0  0  0  0  0
    0.0000    0.0000    0.0000 C   0  0  0  0  0  0  0  0  0  0  0  0
    0.0000    0.0000    0.0000 C   0  0  0  0  0  0  0  0  0  0  0  0
    0.0000    0.0000    0.0000 C   0  0  0  0  0  0  0  0  0  0  0  0
    0.0000    0.0000    0.0000 O   0  0  0  0  0  0  0  0  0  0  0  0
    0.0000    0.0000    0.0000 N   0  0  0  0  0  0  0  0  0  0  0  0
    0.0000    0.0000    0.0000 C   0  0  0  0  0  0  0  0  0  0  0  0
    0.0000    0.0000    0.0000 C   0  0  0  0  0  0  0  0  0  0  0  0
    0.0000    0.0000    0.0000 C   0  0  0  0  0  0  0  0  0  0  0  0
    0.0000    0.0000    0.0000 C   0  0  0  0  0  0  0  0  0  0  0  0
    0.0000    0.0000    0.0000 C   0  0  0  0  0  0  0  0  0  0  0  0
    0.0000    0.0000    0.0000 C   0  0  0  0  0  0  0  0  0  0  0  0
    0.0000    0.0000    0.0000 C   0  0  0  0  0  0  0  0  0  0  0  0
    0.0000    0.0000    0.0000 C   0  0  0  0  0  0  0  0  0  0  0  0
    0.0000    0.0000    0.0000 C   0  0  0  0  0  0  0  0  0  0  0  0
    0.0000    0.0000    0.0000 O   0  0  0  0  0  0  0  0  0  0  0  0
    0.0000    0.0000    0.0000 N   0  0  0  0  0  0  0  0  0  0  0  0
  1  2  1  0
  2  3  1  0
  3  4  1  0
  4  5  1  0
  5  6  1  0
  6  7  1  0
  7  8  1  0
  7  9  1  0
  9 10  2  0
  9 11  1  0
 11 12  1  0
 12 13  1  0
 13 14  1  0
 14 15  2  0
 15 16  1  0
 15 17  1  0
 17 18  2  0
 18 19  1  0
 18 20  1  0
 20 21  2  0
 21 22  1  0
 12 23  1  0
 23 24  2  0
 23 25  1  0
 25 26  1  0
 26 27  1  0
 27 28  1  0
 28 29  1  0
 29 30  1  0
 30 31  2  0
 30 32  1  0
 32 33  1  0
 33 34  1  0
 34 35  1  0
 35 36  2  0
 36 37  1  0
 37 38  1  0
 38 39  2  0
 39 40  1  0
 40 41  2  0
 41 42  1  0
 42 43  2  0
 33 44  1  0
 44 45  2  0
 44 46  1  0
 46 47  1  0
 47 48  1  0
 48 49  1  0
 49 50  2  0
 50 51  1  0
 51 52  2  0
 52 53  1  0
 53 54  2  0
 47 55  1  0
 55 56  2  0
 55 57  1  0
 21 14  1  0
 29 25  1  0
 43 35  1  0
 43 38  1  0
 54 49  1  0
M  END
>  <pIC50>  (510) 
9.5

>  <ChEMBL_ID>  (510) 
CHEMBL509528

>  <document_journal>  (510) 
Bioorg. Med. Chem.

>  <bao_endpoint>  (510) 
BAO_0000190

>  <potential_duplicate>  (510) 
False

>  <uo_units>  (510) 
UO_0000065

>  <canonical_smiles>  (510) 
CCCCCCC(N)C(=O)N[C@@H](Cc1c(C)cc(O)cc1C)C(=O)N2CCC[C@H]2C(=O)N[C@@H](Cc3c[nH]c4ccccc34)C(=O)N[C@@H](Cc5ccccc5)C(=O)N

>  <parent_molecule_chembl_id>  (510) 
CHEMBL509528

>  <assay_type>  (510) 
F

>  <src_id>  (510) 
1

>  <ligand_efficiency>  (510) 
None

>  <standard_flag>  (510) 
True

>  <molecule_chembl_id>  (510) 
CHEMBL509528

>  <target_organism>  (510) 
Homo sapiens

>  <standard_units>  (510) 
nM

>  <record_id>  (510) 
795954

>  <document_chembl_id>  (510) 
CHEMBL1150362

>  <bao_format>  (510) 
BAO_0000219

>  <data_validity_description>  (510) 
None

>  <activity_id>  (510) 
2339517

>  <standard_type>  (510) 
IC50

>  <target_chembl_id>  (510) 
CHEMBL233

>  <data_validity_comment>  (510) 
None

>  <published_value>  (510) 
0.32

>  <document_year>  (510) 
2008

>  <target_pref_name>  (510) 
Mu opioid receptor

>  <assay_chembl_id>  (510) 
CHEMBL955670

>  <standard_relation>  (510) 
=

>  <assay_description>  (510) 
Agonist activity at mu opioid receptor in human SHSY5Y cells assessed as inhibition of forskolin-stimulated cAMP production

>  <published_relation>  (510) 
=

>  <standard_value>  (510) 
0.32

>  <qudt_units>  (510) 
http://www.openphacts.org/units/Nanomolar

>  <target_tax_id>  (510) 
9606

>  <bao_label>  (510) 
cell-based format

>  <published_units>  (510) 
nM

>  <pchembl_value>  (510) 
9.5

>  <published_type>  (510) 
IC50

>  <activity_comment>  (510) 
None

$$$$

     RDKit          

 47 51  0  0  0  0  0  0  0  0999 V2000
    0.0000    0.0000    0.0000 C   0  0  0  0  0  0  0  0  0  0  0  0
    0.0000    0.0000    0.0000 C   0  0  0  0  0  0  0  0  0  0  0  0
    0.0000    0.0000    0.0000 C   0  0  0  0  0  0  0  0  0  0  0  0
    0.0000    0.0000    0.0000 C   0  0  0  0  0  0  0  0  0  0  0  0
    0.0000    0.0000    0.0000 O   0  0  0  0  0  0  0  0  0  0  0  0
    0.0000    0.0000    0.0000 C   0  0  0  0  0  0  0  0  0  0  0  0
    0.0000    0.0000    0.0000 C   0  0  0  0  0  0  0  0  0  0  0  0
    0.0000    0.0000    0.0000 C   0  0  0  0  0  0  0  0  0  0  0  0
    0.0000    0.0000    0.0000 C   0  0  0  0  0  0  0  0  0  0  0  0
    0.0000    0.0000    0.0000 C   0  0  0  0  0  0  0  0  0  0  0  0
    0.0000    0.0000    0.0000 C   0  0  0  0  0  0  0  0  0  0  0  0
    0.0000    0.0000    0.0000 N   0  0  0  0  0  0  0  0  0  0  0  0
    0.0000    0.0000    0.0000 C   0  0  0  0  0  0  0  0  0  0  0  0
    0.0000    0.0000    0.0000 O   0  0  0  0  0  0  0  0  0  0  0  0
    0.0000    0.0000    0.0000 N   0  0  0  0  0  0  0  0  0  0  0  0
    0.0000    0.0000    0.0000 C   0  0  0  0  0  0  0  0  0  0  0  0
    0.0000    0.0000    0.0000 C   0  0  0  0  0  0  0  0  0  0  0  0
    0.0000    0.0000    0.0000 C   0  0  0  0  0  0  0  0  0  0  0  0
    0.0000    0.0000    0.0000 C   0  0  0  0  0  0  0  0  0  0  0  0
    0.0000    0.0000    0.0000 C   0  0  0  0  0  0  0  0  0  0  0  0
    0.0000    0.0000    0.0000 O   0  0  0  0  0  0  0  0  0  0  0  0
    0.0000    0.0000    0.0000 N   0  0  0  0  0  0  0  0  0  0  0  0
    0.0000    0.0000    0.0000 C   0  0  0  0  0  0  0  0  0  0  0  0
    0.0000    0.0000    0.0000 C   0  0  0  0  0  0  0  0  0  0  0  0
    0.0000    0.0000    0.0000 C   0  0  0  0  0  0  0  0  0  0  0  0
    0.0000    0.0000    0.0000 C   0  0  0  0  0  0  0  0  0  0  0  0
    0.0000    0.0000    0.0000 N   0  0  0  0  0  0  0  0  0  0  0  0
    0.0000    0.0000    0.0000 C   0  0  0  0  0  0  0  0  0  0  0  0
    0.0000    0.0000    0.0000 C   0  0  0  0  0  0  0  0  0  0  0  0
    0.0000    0.0000    0.0000 C   0  0  0  0  0  0  0  0  0  0  0  0
    0.0000    0.0000    0.0000 C   0  0  0  0  0  0  0  0  0  0  0  0
    0.0000    0.0000    0.0000 C   0  0  0  0  0  0  0  0  0  0  0  0
    0.0000    0.0000    0.0000 C   0  0  0  0  0  0  0  0  0  0  0  0
    0.0000    0.0000    0.0000 C   0  0  0  0  0  0  0  0  0  0  0  0
    0.0000    0.0000    0.0000 O   0  0  0  0  0  0  0  0  0  0  0  0
    0.0000    0.0000    0.0000 N   0  0  0  0  0  0  0  0  0  0  0  0
    0.0000    0.0000    0.0000 C   0  0  0  0  0  0  0  0  0  0  0  0
    0.0000    0.0000    0.0000 C   0  0  0  0  0  0  0  0  0  0  0  0
    0.0000    0.0000    0.0000 C   0  0  0  0  0  0  0  0  0  0  0  0
    0.0000    0.0000    0.0000 C   0  0  0  0  0  0  0  0  0  0  0  0
    0.0000    0.0000    0.0000 C   0  0  0  0  0  0  0  0  0  0  0  0
    0.0000    0.0000    0.0000 C   0  0  0  0  0  0  0  0  0  0  0  0
    0.0000    0.0000    0.0000 C   0  0  0  0  0  0  0  0  0  0  0  0
    0.0000    0.0000    0.0000 C   0  0  0  0  0  0  0  0  0  0  0  0
    0.0000    0.0000    0.0000 C   0  0  0  0  0  0  0  0  0  0  0  0
    0.0000    0.0000    0.0000 O   0  0  0  0  0  0  0  0  0  0  0  0
    0.0000    0.0000    0.0000 N   0  0  0  0  0  0  0  0  0  0  0  0
  1  2  1  0
  2  3  2  0
  3  4  1  0
  4  5  1  0
  4  6  2  0
  6  7  1  0
  7  8  1  0
  7  9  2  0
  9 10  1  0
 10 11  1  0
 11 12  1  0
 11 13  1  0
 13 14  2  0
 13 15  1  0
 15 16  1  0
 16 17  1  0
 17 18  1  0
 18 19  1  0
 19 20  1  0
 20 21  2  0
 20 22  1  0
 22 23  1  0
 23 24  1  0
 24 25  1  0
 25 26  2  0
 26 27  1  0
 27 28  1  0
 28 29  2  0
 29 30  1  0
 30 31  2  0
 31 32  1  0
 32 33  2  0
 23 34  1  0
 34 35  2  0
 34 36  1  0
 36 37  1  0
 37 38  1  0
 38 39  1  0
 39 40  2  0
 40 41  1  0
 41 42  2  0
 42 43  1  0
 43 44  2  0
 37 45  1  0
 45 46  2  0
 45 47  1  0
  9  2  1  0
 19 15  1  0
 33 25  1  0
 33 28  1  0
 44 39  1  0
M  END
>  <pIC50>  (511) 
9.37

>  <ChEMBL_ID>  (511) 
CHEMBL412923

>  <document_journal>  (511) 
Bioorg. Med. Chem.

>  <bao_endpoint>  (511) 
BAO_0000190

>  <potential_duplicate>  (511) 
False

>  <uo_units>  (511) 
UO_0000065

>  <canonical_smiles>  (511) 
Cc1cc(O)cc(C)c1C[C@H](N)C(=O)N2CCC[C@H]2C(=O)N[C@@H](Cc3c[nH]c4ccccc34)C(=O)N[C@@H](Cc5ccccc5)C(=O)N

>  <parent_molecule_chembl_id>  (511) 
CHEMBL412923

>  <assay_type>  (511) 
F

>  <src_id>  (511) 
1

>  <ligand_efficiency>  (511) 
None

>  <standard_flag>  (511) 
True

>  <molecule_chembl_id>  (511) 
CHEMBL412923

>  <target_organism>  (511) 
Homo sapiens

>  <standard_units>  (511) 
nM

>  <record_id>  (511) 
795953

>  <document_chembl_id>  (511) 
CHEMBL1150362

>  <bao_format>  (511) 
BAO_0000219

>  <data_validity_description>  (511) 
None

>  <activity_id>  (511) 
2339518

>  <standard_type>  (511) 
IC50

>  <target_chembl_id>  (511) 
CHEMBL233

>  <data_validity_comment>  (511) 
None

>  <published_value>  (511) 
0.43

>  <document_year>  (511) 
2008

>  <target_pref_name>  (511) 
Mu opioid receptor

>  <assay_chembl_id>  (511) 
CHEMBL955670

>  <standard_relation>  (511) 
=

>  <assay_description>  (511) 
Agonist activity at mu opioid receptor in human SHSY5Y cells assessed as inhibition of forskolin-stimulated cAMP production

>  <published_relation>  (511) 
=

>  <standard_value>  (511) 
0.43

>  <qudt_units>  (511) 
http://www.openphacts.org/units/Nanomolar

>  <target_tax_id>  (511) 
9606

>  <bao_label>  (511) 
cell-based format

>  <published_units>  (511) 
nM

>  <pchembl_value>  (511) 
9.37

>  <published_type>  (511) 
IC50

>  <activity_comment>  (511) 
None

$$$$

     RDKit          

 55 59  0  0  0  0  0  0  0  0999 V2000
    0.0000    0.0000    0.0000 C   0  0  0  0  0  0  0  0  0  0  0  0
    0.0000    0.0000    0.0000 C   0  0  0  0  0  0  0  0  0  0  0  0
    0.0000    0.0000    0.0000 C   0  0  0  0  0  0  0  0  0  0  0  0
    0.0000    0.0000    0.0000 C   0  0  0  0  0  0  0  0  0  0  0  0
    0.0000    0.0000    0.0000 C   0  0  0  0  0  0  0  0  0  0  0  0
    0.0000    0.0000    0.0000 C   0  0  0  0  0  0  0  0  0  0  0  0
    0.0000    0.0000    0.0000 C   0  0  0  0  0  0  0  0  0  0  0  0
    0.0000    0.0000    0.0000 N   0  0  0  0  0  0  0  0  0  0  0  0
    0.0000    0.0000    0.0000 C   0  0  0  0  0  0  0  0  0  0  0  0
    0.0000    0.0000    0.0000 O   0  0  0  0  0  0  0  0  0  0  0  0
    0.0000    0.0000    0.0000 N   0  0  0  0  0  0  0  0  0  0  0  0
    0.0000    0.0000    0.0000 C   0  0  0  0  0  0  0  0  0  0  0  0
    0.0000    0.0000    0.0000 C   0  0  0  0  0  0  0  0  0  0  0  0
    0.0000    0.0000    0.0000 C   0  0  0  0  0  0  0  0  0  0  0  0
    0.0000    0.0000    0.0000 C   0  0  0  0  0  0  0  0  0  0  0  0
    0.0000    0.0000    0.0000 C   0  0  0  0  0  0  0  0  0  0  0  0
    0.0000    0.0000    0.0000 C   0  0  0  0  0  0  0  0  0  0  0  0
    0.0000    0.0000    0.0000 O   0  0  0  0  0  0  0  0  0  0  0  0
    0.0000    0.0000    0.0000 C   0  0  0  0  0  0  0  0  0  0  0  0
    0.0000    0.0000    0.0000 C   0  0  0  0  0  0  0  0  0  0  0  0
    0.0000    0.0000    0.0000 C   0  0  0  0  0  0  0  0  0  0  0  0
    0.0000    0.0000    0.0000 O   0  0  0  0  0  0  0  0  0  0  0  0
    0.0000    0.0000    0.0000 N   0  0  0  0  0  0  0  0  0  0  0  0
    0.0000    0.0000    0.0000 C   0  0  0  0  0  0  0  0  0  0  0  0
    0.0000    0.0000    0.0000 C   0  0  0  0  0  0  0  0  0  0  0  0
    0.0000    0.0000    0.0000 C   0  0  0  0  0  0  0  0  0  0  0  0
    0.0000    0.0000    0.0000 C   0  0  0  0  0  0  0  0  0  0  0  0
    0.0000    0.0000    0.0000 C   0  0  0  0  0  0  0  0  0  0  0  0
    0.0000    0.0000    0.0000 O   0  0  0  0  0  0  0  0  0  0  0  0
    0.0000    0.0000    0.0000 N   0  0  0  0  0  0  0  0  0  0  0  0
    0.0000    0.0000    0.0000 C   0  0  0  0  0  0  0  0  0  0  0  0
    0.0000    0.0000    0.0000 C   0  0  0  0  0  0  0  0  0  0  0  0
    0.0000    0.0000    0.0000 C   0  0  0  0  0  0  0  0  0  0  0  0
    0.0000    0.0000    0.0000 C   0  0  0  0  0  0  0  0  0  0  0  0
    0.0000    0.0000    0.0000 N   0  0  0  0  0  0  0  0  0  0  0  0
    0.0000    0.0000    0.0000 C   0  0  0  0  0  0  0  0  0  0  0  0
    0.0000    0.0000    0.0000 C   0  0  0  0  0  0  0  0  0  0  0  0
    0.0000    0.0000    0.0000 C   0  0  0  0  0  0  0  0  0  0  0  0
    0.0000    0.0000    0.0000 C   0  0  0  0  0  0  0  0  0  0  0  0
    0.0000    0.0000    0.0000 C   0  0  0  0  0  0  0  0  0  0  0  0
    0.0000    0.0000    0.0000 C   0  0  0  0  0  0  0  0  0  0  0  0
    0.0000    0.0000    0.0000 C   0  0  0  0  0  0  0  0  0  0  0  0
    0.0000    0.0000    0.0000 O   0  0  0  0  0  0  0  0  0  0  0  0
    0.0000    0.0000    0.0000 N   0  0  0  0  0  0  0  0  0  0  0  0
    0.0000    0.0000    0.0000 C   0  0  0  0  0  0  0  0  0  0  0  0
    0.0000    0.0000    0.0000 C   0  0  0  0  0  0  0  0  0  0  0  0
    0.0000    0.0000    0.0000 C   0  0  0  0  0  0  0  0  0  0  0  0
    0.0000    0.0000    0.0000 C   0  0  0  0  0  0  0  0  0  0  0  0
    0.0000    0.0000    0.0000 C   0  0  0  0  0  0  0  0  0  0  0  0
    0.0000    0.0000    0.0000 C   0  0  0  0  0  0  0  0  0  0  0  0
    0.0000    0.0000    0.0000 C   0  0  0  0  0  0  0  0  0  0  0  0
    0.0000    0.0000    0.0000 C   0  0  0  0  0  0  0  0  0  0  0  0
    0.0000    0.0000    0.0000 C   0  0  0  0  0  0  0  0  0  0  0  0
    0.0000    0.0000    0.0000 O   0  0  0  0  0  0  0  0  0  0  0  0
    0.0000    0.0000    0.0000 N   0  0  0  0  0  0  0  0  0  0  0  0
  1  2  1  0
  2  3  1  0
  3  4  1  0
  4  5  1  0
  5  6  1  0
  6  7  1  0
  7  8  1  0
  7  9  1  0
  9 10  2  0
  9 11  1  0
 11 12  1  0
 12 13  1  0
 13 14  1  0
 14 15  2  0
 15 16  1  0
 16 17  2  0
 17 18  1  0
 17 19  1  0
 19 20  2  0
 12 21  1  0
 21 22  2  0
 21 23  1  0
 23 24  1  0
 24 25  1  0
 25 26  1  0
 26 27  1  0
 27 28  1  0
 28 29  2  0
 28 30  1  0
 30 31  1  0
 31 32  1  0
 32 33  1  0
 33 34  2  0
 34 35  1  0
 35 36  1  0
 36 37  2  0
 37 38  1  0
 38 39  2  0
 39 40  1  0
 40 41  2  0
 31 42  1  0
 42 43  2  0
 42 44  1  0
 44 45  1  0
 45 46  1  0
 46 47  1  0
 47 48  2  0
 48 49  1  0
 49 50  2  0
 50 51  1  0
 51 52  2  0
 45 53  1  0
 53 54  2  0
 53 55  1  0
 20 14  1  0
 27 23  1  0
 41 33  1  0
 41 36  1  0
 52 47  1  0
M  END
>  <pIC50>  (512) 
7.58

>  <ChEMBL_ID>  (512) 
CHEMBL471806

>  <document_journal>  (512) 
Bioorg. Med. Chem.

>  <bao_endpoint>  (512) 
BAO_0000190

>  <potential_duplicate>  (512) 
False

>  <uo_units>  (512) 
UO_0000065

>  <canonical_smiles>  (512) 
CCCCCCC(N)C(=O)N[C@@H](Cc1ccc(O)cc1)C(=O)N2CCC[C@H]2C(=O)N[C@@H](Cc3c[nH]c4ccccc34)C(=O)N[C@@H](Cc5ccccc5)C(=O)N

>  <parent_molecule_chembl_id>  (512) 
CHEMBL471806

>  <assay_type>  (512) 
F

>  <src_id>  (512) 
1

>  <ligand_efficiency>  (512) 
None

>  <standard_flag>  (512) 
True

>  <molecule_chembl_id>  (512) 
CHEMBL471806

>  <target_organism>  (512) 
Homo sapiens

>  <standard_units>  (512) 
nM

>  <record_id>  (512) 
795942

>  <document_chembl_id>  (512) 
CHEMBL1150362

>  <bao_format>  (512) 
BAO_0000219

>  <data_validity_description>  (512) 
None

>  <activity_id>  (512) 
2339519

>  <standard_type>  (512) 
IC50

>  <target_chembl_id>  (512) 
CHEMBL233

>  <data_validity_comment>  (512) 
None

>  <published_value>  (512) 
26.3

>  <document_year>  (512) 
2008

>  <target_pref_name>  (512) 
Mu opioid receptor

>  <assay_chembl_id>  (512) 
CHEMBL955670

>  <standard_relation>  (512) 
=

>  <assay_description>  (512) 
Agonist activity at mu opioid receptor in human SHSY5Y cells assessed as inhibition of forskolin-stimulated cAMP production

>  <published_relation>  (512) 
=

>  <standard_value>  (512) 
26.3

>  <qudt_units>  (512) 
http://www.openphacts.org/units/Nanomolar

>  <target_tax_id>  (512) 
9606

>  <bao_label>  (512) 
cell-based format

>  <published_units>  (512) 
nM

>  <pchembl_value>  (512) 
7.58

>  <published_type>  (512) 
IC50

>  <activity_comment>  (512) 
None

$$$$

     RDKit          

 27 30  0  0  0  0  0  0  0  0999 V2000
    0.0000    0.0000    0.0000 C   0  0  0  0  0  0  0  0  0  0  0  0
    0.0000    0.0000    0.0000 O   0  0  0  0  0  0  0  0  0  0  0  0
    0.0000    0.0000    0.0000 C   0  0  0  0  0  0  0  0  0  0  0  0
    0.0000    0.0000    0.0000 C   0  0  0  0  0  0  0  0  0  0  0  0
    0.0000    0.0000    0.0000 C   0  0  0  0  0  0  0  0  0  0  0  0
    0.0000    0.0000    0.0000 C   0  0  0  0  0  0  0  0  0  0  0  0
    0.0000    0.0000    0.0000 C   0  0  0  0  0  0  0  0  0  0  0  0
    0.0000    0.0000    0.0000 C   0  0  0  0  0  0  0  0  0  0  0  0
    0.0000    0.0000    0.0000 C   0  0  0  0  0  0  0  0  0  0  0  0
    0.0000    0.0000    0.0000 N   0  0  0  0  0  0  0  0  0  0  0  0
    0.0000    0.0000    0.0000 C   0  0  0  0  0  0  0  0  0  0  0  0
    0.0000    0.0000    0.0000 C   0  0  0  0  0  0  0  0  0  0  0  0
    0.0000    0.0000    0.0000 C   0  0  0  0  0  0  0  0  0  0  0  0
    0.0000    0.0000    0.0000 N   0  0  0  0  0  0  0  0  0  0  0  0
    0.0000    0.0000    0.0000 C   0  0  0  0  0  0  0  0  0  0  0  0
    0.0000    0.0000    0.0000 N   0  0  0  0  0  0  0  0  0  0  0  0
    0.0000    0.0000    0.0000 C   0  0  0  0  0  0  0  0  0  0  0  0
    0.0000    0.0000    0.0000 C   0  0  0  0  0  0  0  0  0  0  0  0
    0.0000    0.0000    0.0000 C   0  0  0  0  0  0  0  0  0  0  0  0
    0.0000    0.0000    0.0000 C   0  0  0  0  0  0  0  0  0  0  0  0
    0.0000    0.0000    0.0000 C   0  0  0  0  0  0  0  0  0  0  0  0
    0.0000    0.0000    0.0000 C   0  0  0  0  0  0  0  0  0  0  0  0
    0.0000    0.0000    0.0000 C   0  0  0  0  0  0  0  0  0  0  0  0
    0.0000    0.0000    0.0000 C   0  0  0  0  0  0  0  0  0  0  0  0
    0.0000    0.0000    0.0000 C   0  0  0  0  0  0  0  0  0  0  0  0
    0.0000    0.0000    0.0000 C   0  0  0  0  0  0  0  0  0  0  0  0
    0.0000    0.0000    0.0000 C   0  0  0  0  0  0  0  0  0  0  0  0
  1  2  1  0
  2  3  1  0
  3  4  2  0
  4  5  1  0
  5  6  2  0
  6  7  1  0
  7  8  1  0
  8  9  1  0
  9 10  1  0
 10 11  1  0
 11 12  1  0
 11 13  1  0
 13 14  1  0
 14 15  2  0
 15 16  1  0
 16 17  1  0
 17 18  1  0
 18 19  1  0
 19 20  1  0
 20 21  1  0
 21 22  1  0
 22 23  1  0
 23 24  1  0
 24 25  1  0
  6 26  1  0
 26 27  2  0
 27  3  1  0
 16  8  1  0
 15 10  1  0
 25 20  1  0
M  END
>  <pIC50>  (513) 
6.38

>  <ChEMBL_ID>  (513) 
CHEMBL431660

>  <document_journal>  (513) 
Bioorg. Med. Chem.

>  <bao_endpoint>  (513) 
BAO_0000190

>  <potential_duplicate>  (513) 
False

>  <uo_units>  (513) 
UO_0000065

>  <canonical_smiles>  (513) 
COc1ccc(C[C@H]2CN3[C@@H](C)CN=C3N2CCCC4CCCCC4)cc1

>  <parent_molecule_chembl_id>  (513) 
CHEMBL431660

>  <assay_type>  (513) 
B

>  <src_id>  (513) 
1

>  <ligand_efficiency>  (513) 
{u'le': u'0.32', u'bei': u'17.25', u'sei': u'22.71', u'lle': u'1.37'}

>  <standard_flag>  (513) 
True

>  <molecule_chembl_id>  (513) 
CHEMBL431660

>  <target_organism>  (513) 
Homo sapiens

>  <standard_units>  (513) 
nM

>  <record_id>  (513) 
795404

>  <document_chembl_id>  (513) 
CHEMBL1150369

>  <bao_format>  (513) 
BAO_0000357

>  <data_validity_description>  (513) 
None

>  <activity_id>  (513) 
2339903

>  <standard_type>  (513) 
IC50

>  <target_chembl_id>  (513) 
CHEMBL233

>  <data_validity_comment>  (513) 
None

>  <published_value>  (513) 
421

>  <document_year>  (513) 
2008

>  <target_pref_name>  (513) 
Mu opioid receptor

>  <assay_chembl_id>  (513) 
CHEMBL961463

>  <standard_relation>  (513) 
=

>  <assay_description>  (513) 
Binding affinity at mu opioid receptor

>  <published_relation>  (513) 
=

>  <standard_value>  (513) 
421

>  <qudt_units>  (513) 
http://www.openphacts.org/units/Nanomolar

>  <target_tax_id>  (513) 
9606

>  <bao_label>  (513) 
single protein format

>  <published_units>  (513) 
nM

>  <pchembl_value>  (513) 
6.38

>  <published_type>  (513) 
IC50

>  <activity_comment>  (513) 
None

$$$$

     RDKit          

 27 31  0  0  0  0  0  0  0  0999 V2000
    0.0000    0.0000    0.0000 C   0  0  0  0  0  0  0  0  0  0  0  0
    0.0000    0.0000    0.0000 O   0  0  0  0  0  0  0  0  0  0  0  0
    0.0000    0.0000    0.0000 C   0  0  0  0  0  0  0  0  0  0  0  0
    0.0000    0.0000    0.0000 C   0  0  0  0  0  0  0  0  0  0  0  0
    0.0000    0.0000    0.0000 C   0  0  0  0  0  0  0  0  0  0  0  0
    0.0000    0.0000    0.0000 C   0  0  0  0  0  0  0  0  0  0  0  0
    0.0000    0.0000    0.0000 C   0  0  0  0  0  0  0  0  0  0  0  0
    0.0000    0.0000    0.0000 C   0  0  0  0  0  0  0  0  0  0  0  0
    0.0000    0.0000    0.0000 C   0  0  0  0  0  0  0  0  0  0  0  0
    0.0000    0.0000    0.0000 N   0  0  0  0  0  0  0  0  0  0  0  0
    0.0000    0.0000    0.0000 C   0  0  0  0  0  0  0  0  0  0  0  0
    0.0000    0.0000    0.0000 C   0  0  0  0  0  0  0  0  0  0  0  0
    0.0000    0.0000    0.0000 C   0  0  0  0  0  0  0  0  0  0  0  0
    0.0000    0.0000    0.0000 N   0  0  0  0  0  0  0  0  0  0  0  0
    0.0000    0.0000    0.0000 C   0  0  0  0  0  0  0  0  0  0  0  0
    0.0000    0.0000    0.0000 N   0  0  0  0  0  0  0  0  0  0  0  0
    0.0000    0.0000    0.0000 C   0  0  0  0  0  0  0  0  0  0  0  0
    0.0000    0.0000    0.0000 C   0  0  0  0  0  0  0  0  0  0  0  0
    0.0000    0.0000    0.0000 C   0  0  0  0  0  0  0  0  0  0  0  0
    0.0000    0.0000    0.0000 C   0  0  0  0  0  0  0  0  0  0  0  0
    0.0000    0.0000    0.0000 C   0  0  0  0  0  0  0  0  0  0  0  0
    0.0000    0.0000    0.0000 C   0  0  0  0  0  0  0  0  0  0  0  0
    0.0000    0.0000    0.0000 C   0  0  0  0  0  0  0  0  0  0  0  0
    0.0000    0.0000    0.0000 C   0  0  0  0  0  0  0  0  0  0  0  0
    0.0000    0.0000    0.0000 C   0  0  0  0  0  0  0  0  0  0  0  0
    0.0000    0.0000    0.0000 C   0  0  0  0  0  0  0  0  0  0  0  0
    0.0000    0.0000    0.0000 C   0  0  0  0  0  0  0  0  0  0  0  0
  1  2  1  0
  2  3  1  0
  3  4  2  0
  4  5  1  0
  5  6  2  0
  6  7  1  0
  7  8  1  0
  8  9  1  0
  9 10  1  0
 10 11  1  0
 11 12  1  0
 11 13  1  0
 13 14  1  0
 14 15  2  0
 15 16  1  0
 16 17  1  0
 17 18  1  0
 18 19  1  0
 19 20  1  0
 20 21  1  0
 21 22  1  0
 22 23  1  0
 23 24  1  0
 24 25  1  0
  6 26  1  0
 26 27  2  0
 27  3  1  0
 16  8  1  0
 15 10  1  0
 24 19  1  0
 25 21  1  0
M  END
>  <pIC50>  (514) 
4.69

>  <ChEMBL_ID>  (514) 
CHEMBL339254

>  <document_journal>  (514) 
Bioorg. Med. Chem.

>  <bao_endpoint>  (514) 
BAO_0000190

>  <potential_duplicate>  (514) 
False

>  <uo_units>  (514) 
UO_0000065

>  <canonical_smiles>  (514) 
COc1ccc(C[C@@H]2CN3[C@@H](C)CN=C3N2CCC4CC5CCC4C5)cc1

>  <parent_molecule_chembl_id>  (514) 
CHEMBL339254

>  <assay_type>  (514) 
B

>  <src_id>  (514) 
1

>  <ligand_efficiency>  (514) 
{u'le': u'0.24', u'bei': u'12.77', u'sei': u'16.72', u'lle': u'0.46'}

>  <standard_flag>  (514) 
True

>  <molecule_chembl_id>  (514) 
CHEMBL339254

>  <target_organism>  (514) 
Homo sapiens

>  <standard_units>  (514) 
nM

>  <record_id>  (514) 
795405

>  <document_chembl_id>  (514) 
CHEMBL1150369

>  <bao_format>  (514) 
BAO_0000357

>  <data_validity_description>  (514) 
None

>  <activity_id>  (514) 
2339905

>  <standard_type>  (514) 
IC50

>  <target_chembl_id>  (514) 
CHEMBL233

>  <data_validity_comment>  (514) 
None

>  <published_value>  (514) 
20286

>  <document_year>  (514) 
2008

>  <target_pref_name>  (514) 
Mu opioid receptor

>  <assay_chembl_id>  (514) 
CHEMBL961463

>  <standard_relation>  (514) 
=

>  <assay_description>  (514) 
Binding affinity at mu opioid receptor

>  <published_relation>  (514) 
=

>  <standard_value>  (514) 
20286

>  <qudt_units>  (514) 
http://www.openphacts.org/units/Nanomolar

>  <target_tax_id>  (514) 
9606

>  <bao_label>  (514) 
single protein format

>  <published_units>  (514) 
nM

>  <pchembl_value>  (514) 
4.69

>  <published_type>  (514) 
IC50

>  <activity_comment>  (514) 
None

$$$$

     RDKit          

 24 28  0  0  0  0  0  0  0  0999 V2000
    0.0000    0.0000    0.0000 C   0  0  0  0  0  0  0  0  0  0  0  0
    0.0000    0.0000    0.0000 C   0  0  0  0  0  0  0  0  0  0  0  0
    0.0000    0.0000    0.0000 C   0  0  0  0  0  0  0  0  0  0  0  0
    0.0000    0.0000    0.0000 C   0  0  0  0  0  0  0  0  0  0  0  0
    0.0000    0.0000    0.0000 C   0  0  0  0  0  0  0  0  0  0  0  0
    0.0000    0.0000    0.0000 C   0  0  0  0  0  0  0  0  0  0  0  0
    0.0000    0.0000    0.0000 C   0  0  0  0  0  0  0  0  0  0  0  0
    0.0000    0.0000    0.0000 C   0  0  0  0  0  0  0  0  0  0  0  0
    0.0000    0.0000    0.0000 C   0  0  0  0  0  0  0  0  0  0  0  0
    0.0000    0.0000    0.0000 N   0  0  0  0  0  0  0  0  0  0  0  0
    0.0000    0.0000    0.0000 N   0  0  0  0  0  0  0  0  0  0  0  0
    0.0000    0.0000    0.0000 C   0  0  0  0  0  0  0  0  0  0  0  0
    0.0000    0.0000    0.0000 N   0  0  0  0  0  0  0  0  0  0  0  0
    0.0000    0.0000    0.0000 C   0  0  0  0  0  0  0  0  0  0  0  0
    0.0000    0.0000    0.0000 C   0  0  0  0  0  0  0  0  0  0  0  0
    0.0000    0.0000    0.0000 C   0  0  0  0  0  0  0  0  0  0  0  0
    0.0000    0.0000    0.0000 C   0  0  0  0  0  0  0  0  0  0  0  0
    0.0000    0.0000    0.0000 C   0  0  0  0  0  0  0  0  0  0  0  0
    0.0000    0.0000    0.0000 C   0  0  0  0  0  0  0  0  0  0  0  0
    0.0000    0.0000    0.0000 N   0  0  0  0  0  0  0  0  0  0  0  0
    0.0000    0.0000    0.0000 C   0  0  0  0  0  0  0  0  0  0  0  0
    0.0000    0.0000    0.0000 C   0  0  0  0  0  0  0  0  0  0  0  0
    0.0000    0.0000    0.0000 C   0  0  0  0  0  0  0  0  0  0  0  0
    0.0000    0.0000    0.0000 C   0  0  0  0  0  0  0  0  0  0  0  0
  1  2  1  0
  2  3  1  0
  3  4  1  0
  4  5  1  0
  5  6  2  0
  6  7  1  0
  7  8  2  0
  8  9  1  0
  9 10  1  0
  9 11  2  0
 11 12  1  0
 12 13  2  0
 13 14  1  0
 14 15  2  0
 15 16  1  0
 16 17  1  0
 16 18  1  0
 18 19  1  0
 19 20  1  0
 20 21  1  0
 21 22  1  0
 22 23  1  0
 23 24  1  0
 16  2  1  0
 20  3  1  0
 15  5  1  0
 14  8  1  0
 24 22  1  0
M  END
>  <pIC50>  (515) 
7.55

>  <ChEMBL_ID>  (515) 
CHEMBL469189

>  <document_journal>  (515) 
Bioorg. Med. Chem.

>  <bao_endpoint>  (515) 
BAO_0000190

>  <potential_duplicate>  (515) 
False

>  <uo_units>  (515) 
UO_0000065

>  <canonical_smiles>  (515) 
C[C@H]1C2Cc3ccc4c(N)ncnc4c3[C@@]1(C)CCN2CC5CC5

>  <parent_molecule_chembl_id>  (515) 
CHEMBL469189

>  <assay_type>  (515) 
F

>  <src_id>  (515) 
1

>  <ligand_efficiency>  (515) 
None

>  <standard_flag>  (515) 
True

>  <molecule_chembl_id>  (515) 
CHEMBL469189

>  <target_organism>  (515) 
Homo sapiens

>  <standard_units>  (515) 
nM

>  <record_id>  (515) 
768725

>  <document_chembl_id>  (515) 
CHEMBL1150274

>  <bao_format>  (515) 
BAO_0000219

>  <data_validity_description>  (515) 
None

>  <activity_id>  (515) 
2354869

>  <standard_type>  (515) 
IC50

>  <target_chembl_id>  (515) 
CHEMBL233

>  <data_validity_comment>  (515) 
None

>  <published_value>  (515) 
28

>  <document_year>  (515) 
2008

>  <target_pref_name>  (515) 
Mu opioid receptor

>  <assay_chembl_id>  (515) 
CHEMBL973308

>  <standard_relation>  (515) 
=

>  <assay_description>  (515) 
Antagonist activity at human mu opioid receptor expressed in CHO cells assessed as inhibition of DAMGO-stimulated [35S]GTPgammaS binding

>  <published_relation>  (515) 
=

>  <standard_value>  (515) 
28

>  <qudt_units>  (515) 
http://www.openphacts.org/units/Nanomolar

>  <target_tax_id>  (515) 
9606

>  <bao_label>  (515) 
cell-based format

>  <published_units>  (515) 
nM

>  <pchembl_value>  (515) 
7.55

>  <published_type>  (515) 
IC50

>  <activity_comment>  (515) 
None

$$$$

     RDKit          

 24 28  0  0  0  0  0  0  0  0999 V2000
    0.0000    0.0000    0.0000 C   0  0  0  0  0  0  0  0  0  0  0  0
    0.0000    0.0000    0.0000 C   0  0  0  0  0  0  0  0  0  0  0  0
    0.0000    0.0000    0.0000 C   0  0  0  0  0  0  0  0  0  0  0  0
    0.0000    0.0000    0.0000 C   0  0  0  0  0  0  0  0  0  0  0  0
    0.0000    0.0000    0.0000 C   0  0  0  0  0  0  0  0  0  0  0  0
    0.0000    0.0000    0.0000 C   0  0  0  0  0  0  0  0  0  0  0  0
    0.0000    0.0000    0.0000 C   0  0  0  0  0  0  0  0  0  0  0  0
    0.0000    0.0000    0.0000 C   0  0  0  0  0  0  0  0  0  0  0  0
    0.0000    0.0000    0.0000 C   0  0  0  0  0  0  0  0  0  0  0  0
    0.0000    0.0000    0.0000 N   0  0  0  0  0  0  0  0  0  0  0  0
    0.0000    0.0000    0.0000 C   0  0  0  0  0  0  0  0  0  0  0  0
    0.0000    0.0000    0.0000 O   0  0  0  0  0  0  0  0  0  0  0  0
    0.0000    0.0000    0.0000 C   0  0  0  0  0  0  0  0  0  0  0  0
    0.0000    0.0000    0.0000 C   0  0  0  0  0  0  0  0  0  0  0  0
    0.0000    0.0000    0.0000 C   0  0  0  0  0  0  0  0  0  0  0  0
    0.0000    0.0000    0.0000 C   0  0  0  0  0  0  0  0  0  0  0  0
    0.0000    0.0000    0.0000 C   0  0  0  0  0  0  0  0  0  0  0  0
    0.0000    0.0000    0.0000 C   0  0  0  0  0  0  0  0  0  0  0  0
    0.0000    0.0000    0.0000 C   0  0  0  0  0  0  0  0  0  0  0  0
    0.0000    0.0000    0.0000 N   0  0  0  0  0  0  0  0  0  0  0  0
    0.0000    0.0000    0.0000 C   0  0  0  0  0  0  0  0  0  0  0  0
    0.0000    0.0000    0.0000 C   0  0  0  0  0  0  0  0  0  0  0  0
    0.0000    0.0000    0.0000 C   0  0  0  0  0  0  0  0  0  0  0  0
    0.0000    0.0000    0.0000 C   0  0  0  0  0  0  0  0  0  0  0  0
  1  2  1  0
  2  3  1  0
  3  4  1  0
  4  5  1  0
  5  6  2  0
  6  7  1  0
  7  8  1  0
  8  9  2  0
  9 10  1  0
 10 11  1  0
 11 12  2  0
 11 13  1  0
 13 14  1  0
 14 15  2  0
 15 16  1  0
 16 17  1  0
 16 18  1  0
 18 19  1  0
 19 20  1  0
 20 21  1  0
 21 22  1  0
 22 23  1  0
 23 24  1  0
 16  2  1  0
 20  3  1  0
 15  5  1  0
 13  7  2  0
 24 22  1  0
M  END
>  <pIC50>  (516) 
6.07

>  <ChEMBL_ID>  (516) 
CHEMBL493621

>  <document_journal>  (516) 
Bioorg. Med. Chem.

>  <bao_endpoint>  (516) 
BAO_0000190

>  <potential_duplicate>  (516) 
False

>  <uo_units>  (516) 
UO_0000065

>  <canonical_smiles>  (516) 
C[C@H]1C2Cc3cc4C=CNC(=O)c4cc3[C@@]1(C)CCN2CC5CC5

>  <parent_molecule_chembl_id>  (516) 
CHEMBL493621

>  <assay_type>  (516) 
F

>  <src_id>  (516) 
1

>  <ligand_efficiency>  (516) 
None

>  <standard_flag>  (516) 
True

>  <molecule_chembl_id>  (516) 
CHEMBL493621

>  <target_organism>  (516) 
Homo sapiens

>  <standard_units>  (516) 
nM

>  <record_id>  (516) 
767365

>  <document_chembl_id>  (516) 
CHEMBL1150274

>  <bao_format>  (516) 
BAO_0000219

>  <data_validity_description>  (516) 
None

>  <activity_id>  (516) 
2354871

>  <standard_type>  (516) 
IC50

>  <target_chembl_id>  (516) 
CHEMBL233

>  <data_validity_comment>  (516) 
None

>  <published_value>  (516) 
850

>  <document_year>  (516) 
2008

>  <target_pref_name>  (516) 
Mu opioid receptor

>  <assay_chembl_id>  (516) 
CHEMBL973308

>  <standard_relation>  (516) 
=

>  <assay_description>  (516) 
Antagonist activity at human mu opioid receptor expressed in CHO cells assessed as inhibition of DAMGO-stimulated [35S]GTPgammaS binding

>  <published_relation>  (516) 
=

>  <standard_value>  (516) 
850

>  <qudt_units>  (516) 
http://www.openphacts.org/units/Nanomolar

>  <target_tax_id>  (516) 
9606

>  <bao_label>  (516) 
cell-based format

>  <published_units>  (516) 
nM

>  <pchembl_value>  (516) 
6.07

>  <published_type>  (516) 
IC50

>  <activity_comment>  (516) 
None

$$$$

     RDKit          

 23 26  0  0  0  0  0  0  0  0999 V2000
    0.0000    0.0000    0.0000 C   0  0  0  0  0  0  0  0  0  0  0  0
    0.0000    0.0000    0.0000 C   0  0  0  0  0  0  0  0  0  0  0  0
    0.0000    0.0000    0.0000 C   0  0  0  0  0  0  0  0  0  0  0  0
    0.0000    0.0000    0.0000 C   0  0  0  0  0  0  0  0  0  0  0  0
    0.0000    0.0000    0.0000 C   0  0  0  0  0  0  0  0  0  0  0  0
    0.0000    0.0000    0.0000 C   0  0  0  0  0  0  0  0  0  0  0  0
    0.0000    0.0000    0.0000 C   0  0  0  0  0  0  0  0  0  0  0  0
    0.0000    0.0000    0.0000 C   0  0  0  0  0  0  0  0  0  0  0  0
    0.0000    0.0000    0.0000 C   0  0  0  0  0  0  0  0  0  0  0  0
    0.0000    0.0000    0.0000 O   0  0  0  0  0  0  0  0  0  0  0  0
    0.0000    0.0000    0.0000 N   0  0  0  0  0  0  0  0  0  0  0  0
    0.0000    0.0000    0.0000 C   0  0  0  0  0  0  0  0  0  0  0  0
    0.0000    0.0000    0.0000 N   0  0  0  0  0  0  0  0  0  0  0  0
    0.0000    0.0000    0.0000 C   0  0  0  0  0  0  0  0  0  0  0  0
    0.0000    0.0000    0.0000 C   0  0  0  0  0  0  0  0  0  0  0  0
    0.0000    0.0000    0.0000 C   0  0  0  0  0  0  0  0  0  0  0  0
    0.0000    0.0000    0.0000 C   0  0  0  0  0  0  0  0  0  0  0  0
    0.0000    0.0000    0.0000 C   0  0  0  0  0  0  0  0  0  0  0  0
    0.0000    0.0000    0.0000 N   0  0  0  0  0  0  0  0  0  0  0  0
    0.0000    0.0000    0.0000 C   0  0  0  0  0  0  0  0  0  0  0  0
    0.0000    0.0000    0.0000 C   0  0  0  0  0  0  0  0  0  0  0  0
    0.0000    0.0000    0.0000 C   0  0  0  0  0  0  0  0  0  0  0  0
    0.0000    0.0000    0.0000 C   0  0  0  0  0  0  0  0  0  0  0  0
  1  2  1  0
  2  3  1  0
  3  4  1  0
  4  5  1  0
  5  6  2  0
  6  7  1  0
  7  8  2  0
  8  9  1  0
  9 10  2  0
  9 11  1  0
  8 12  1  0
 12 13  1  0
 12 14  2  0
 14 15  1  0
 15 16  1  0
 15 17  1  0
 17 18  1  0
 18 19  1  0
 19 20  1  0
 20 21  1  0
 21 22  1  0
 22 23  1  0
 15  2  1  0
 19  3  1  0
 14  5  1  0
 23 21  1  0
M  END
>  <pIC50>  (517) 
7.51

>  <ChEMBL_ID>  (517) 
CHEMBL522375

>  <document_journal>  (517) 
Bioorg. Med. Chem.

>  <bao_endpoint>  (517) 
BAO_0000190

>  <potential_duplicate>  (517) 
False

>  <uo_units>  (517) 
UO_0000065

>  <canonical_smiles>  (517) 
C[C@H]1C2Cc3ccc(C(=O)N)c(N)c3[C@@]1(C)CCN2CC4CC4

>  <parent_molecule_chembl_id>  (517) 
CHEMBL522375

>  <assay_type>  (517) 
F

>  <src_id>  (517) 
1

>  <ligand_efficiency>  (517) 
None

>  <standard_flag>  (517) 
True

>  <molecule_chembl_id>  (517) 
CHEMBL522375

>  <target_organism>  (517) 
Homo sapiens

>  <standard_units>  (517) 
nM

>  <record_id>  (517) 
767363

>  <document_chembl_id>  (517) 
CHEMBL1150274

>  <bao_format>  (517) 
BAO_0000219

>  <data_validity_description>  (517) 
None

>  <activity_id>  (517) 
2354873

>  <standard_type>  (517) 
IC50

>  <target_chembl_id>  (517) 
CHEMBL233

>  <data_validity_comment>  (517) 
None

>  <published_value>  (517) 
31

>  <document_year>  (517) 
2008

>  <target_pref_name>  (517) 
Mu opioid receptor

>  <assay_chembl_id>  (517) 
CHEMBL973308

>  <standard_relation>  (517) 
=

>  <assay_description>  (517) 
Antagonist activity at human mu opioid receptor expressed in CHO cells assessed as inhibition of DAMGO-stimulated [35S]GTPgammaS binding

>  <published_relation>  (517) 
=

>  <standard_value>  (517) 
31

>  <qudt_units>  (517) 
http://www.openphacts.org/units/Nanomolar

>  <target_tax_id>  (517) 
9606

>  <bao_label>  (517) 
cell-based format

>  <published_units>  (517) 
nM

>  <pchembl_value>  (517) 
7.51

>  <published_type>  (517) 
IC50

>  <activity_comment>  (517) 
None

$$$$

     RDKit          

 25 27  0  0  0  0  0  0  0  0999 V2000
    0.0000    0.0000    0.0000 C   0  0  0  0  0  0  0  0  0  0  0  0
    0.0000    0.0000    0.0000 C   0  0  0  0  0  0  0  0  0  0  0  0
    0.0000    0.0000    0.0000 C   0  0  0  0  0  0  0  0  0  0  0  0
    0.0000    0.0000    0.0000 N   0  0  0  0  0  0  0  0  0  0  0  0
    0.0000    0.0000    0.0000 C   0  0  0  0  0  0  0  0  0  0  0  0
    0.0000    0.0000    0.0000 C   0  0  0  0  0  0  0  0  0  0  0  0
    0.0000    0.0000    0.0000 O   0  0  0  0  0  0  0  0  0  0  0  0
    0.0000    0.0000    0.0000 C   0  0  0  0  0  0  0  0  0  0  0  0
    0.0000    0.0000    0.0000 C   0  0  0  0  0  0  0  0  0  0  0  0
    0.0000    0.0000    0.0000 N   0  0  0  0  0  0  0  0  0  0  0  0
    0.0000    0.0000    0.0000 C   0  0  0  0  0  0  0  0  0  0  0  0
    0.0000    0.0000    0.0000 C   0  0  0  0  0  0  0  0  0  0  0  0
    0.0000    0.0000    0.0000 C   0  0  0  0  0  0  0  0  0  0  0  0
    0.0000    0.0000    0.0000 N   0  0  0  0  0  0  0  0  0  0  0  0
    0.0000    0.0000    0.0000 C   0  0  0  0  0  0  0  0  0  0  0  0
    0.0000    0.0000    0.0000 S   0  0  0  0  0  0  0  0  0  0  0  0
    0.0000    0.0000    0.0000 C   0  0  0  0  0  0  0  0  0  0  0  0
    0.0000    0.0000    0.0000 C   0  0  0  0  0  0  0  0  0  0  0  0
    0.0000    0.0000    0.0000 C   0  0  0  0  0  0  0  0  0  0  0  0
    0.0000    0.0000    0.0000 C   0  0  0  0  0  0  0  0  0  0  0  0
    0.0000    0.0000    0.0000 N   0  0  0  0  0  0  0  0  0  0  0  0
    0.0000    0.0000    0.0000 C   0  0  0  0  0  0  0  0  0  0  0  0
    0.0000    0.0000    0.0000 C   0  0  0  0  0  0  0  0  0  0  0  0
    0.0000    0.0000    0.0000 C   0  0  0  0  0  0  0  0  0  0  0  0
    0.0000    0.0000    0.0000 Cl  0  0  0  0  0  0  0  0  0  0  0  0
  1  2  1  0
  2  3  1  0
  3  4  1  0
  4  5  1  0
  5  6  1  0
  6  7  1  0
  4  8  1  0
  8  9  1  0
  9 10  1  0
 10 11  1  0
 11 12  2  0
 12 13  1  0
 13 14  1  0
 14 15  1  0
 15 16  1  0
 16 17  1  0
 17 18  1  0
 17 19  1  0
 17 20  1  0
 15 21  2  0
 21 22  1  0
 22 23  1  0
 23 24  2  0
 24 25  1  0
 10  2  1  0
 24 11  1  0
 22 13  2  0
M  END
>  <pIC50>  (518) 
6.15

>  <ChEMBL_ID>  (518) 
CHEMBL494350

>  <document_journal>  (518) 
Bioorg. Med. Chem. Lett.

>  <bao_endpoint>  (518) 
BAO_0000190

>  <potential_duplicate>  (518) 
False

>  <uo_units>  (518) 
UO_0000065

>  <canonical_smiles>  (518) 
C[C@@H]1CN(CCO)CCN1c2cc3[nH]c(SC(C)(C)C)nc3cc2Cl

>  <parent_molecule_chembl_id>  (518) 
CHEMBL494350

>  <assay_type>  (518) 
B

>  <src_id>  (518) 
1

>  <ligand_efficiency>  (518) 
{u'le': u'0.31', u'bei': u'14.94', u'sei': u'7.09', u'lle': u'1.74'}

>  <standard_flag>  (518) 
True

>  <molecule_chembl_id>  (518) 
CHEMBL494350

>  <target_organism>  (518) 
Homo sapiens

>  <standard_units>  (518) 
nM

>  <record_id>  (518) 
766104

>  <document_chembl_id>  (518) 
CHEMBL1150320

>  <bao_format>  (518) 
BAO_0000219

>  <data_validity_description>  (518) 
None

>  <activity_id>  (518) 
2357131

>  <standard_type>  (518) 
IC50

>  <target_chembl_id>  (518) 
CHEMBL233

>  <data_validity_comment>  (518) 
None

>  <published_value>  (518) 
1900

>  <document_year>  (518) 
2008

>  <target_pref_name>  (518) 
Mu opioid receptor

>  <assay_chembl_id>  (518) 
CHEMBL953421

>  <standard_relation>  (518) 
=

>  <assay_description>  (518) 
Displacement of [3H]diprenorphin from human mu opioid receptor expressed in CHO cell membrane

>  <published_relation>  (518) 
=

>  <standard_value>  (518) 
1900

>  <qudt_units>  (518) 
http://www.openphacts.org/units/Nanomolar

>  <target_tax_id>  (518) 
9606

>  <bao_label>  (518) 
cell-based format

>  <published_units>  (518) 
nM

>  <pchembl_value>  (518) 
5.72

>  <published_type>  (518) 
IC50

>  <activity_comment>  (518) 
None

$$$$

     RDKit          

 25 27  0  0  0  0  0  0  0  0999 V2000
    0.0000    0.0000    0.0000 C   0  0  0  0  0  0  0  0  0  0  0  0
    0.0000    0.0000    0.0000 C   0  0  0  0  0  0  0  0  0  0  0  0
    0.0000    0.0000    0.0000 C   0  0  0  0  0  0  0  0  0  0  0  0
    0.0000    0.0000    0.0000 N   0  0  0  0  0  0  0  0  0  0  0  0
    0.0000    0.0000    0.0000 C   0  0  0  0  0  0  0  0  0  0  0  0
    0.0000    0.0000    0.0000 C   0  0  0  0  0  0  0  0  0  0  0  0
    0.0000    0.0000    0.0000 O   0  0  0  0  0  0  0  0  0  0  0  0
    0.0000    0.0000    0.0000 C   0  0  0  0  0  0  0  0  0  0  0  0
    0.0000    0.0000    0.0000 C   0  0  0  0  0  0  0  0  0  0  0  0
    0.0000    0.0000    0.0000 N   0  0  0  0  0  0  0  0  0  0  0  0
    0.0000    0.0000    0.0000 C   0  0  0  0  0  0  0  0  0  0  0  0
    0.0000    0.0000    0.0000 C   0  0  0  0  0  0  0  0  0  0  0  0
    0.0000    0.0000    0.0000 C   0  0  0  0  0  0  0  0  0  0  0  0
    0.0000    0.0000    0.0000 N   0  0  0  0  0  0  0  0  0  0  0  0
    0.0000    0.0000    0.0000 C   0  0  0  0  0  0  0  0  0  0  0  0
    0.0000    0.0000    0.0000 S   0  0  0  0  0  0  0  0  0  0  0  0
    0.0000    0.0000    0.0000 C   0  0  0  0  0  0  0  0  0  0  0  0
    0.0000    0.0000    0.0000 C   0  0  0  0  0  0  0  0  0  0  0  0
    0.0000    0.0000    0.0000 C   0  0  0  0  0  0  0  0  0  0  0  0
    0.0000    0.0000    0.0000 C   0  0  0  0  0  0  0  0  0  0  0  0
    0.0000    0.0000    0.0000 N   0  0  0  0  0  0  0  0  0  0  0  0
    0.0000    0.0000    0.0000 C   0  0  0  0  0  0  0  0  0  0  0  0
    0.0000    0.0000    0.0000 C   0  0  0  0  0  0  0  0  0  0  0  0
    0.0000    0.0000    0.0000 C   0  0  0  0  0  0  0  0  0  0  0  0
    0.0000    0.0000    0.0000 Cl  0  0  0  0  0  0  0  0  0  0  0  0
  1  2  1  0
  2  3  1  0
  3  4  1  0
  4  5  1  0
  5  6  1  0
  6  7  1  0
  4  8  1  0
  8  9  1  0
  9 10  1  0
 10 11  1  0
 11 12  2  0
 12 13  1  0
 13 14  1  0
 14 15  1  0
 15 16  1  0
 16 17  1  0
 17 18  1  0
 17 19  1  0
 17 20  1  0
 15 21  2  0
 21 22  1  0
 22 23  1  0
 23 24  2  0
 24 25  1  0
 10  2  1  0
 24 11  1  0
 22 13  2  0
M  END
>  <pIC50>  (519) 
7.385

>  <ChEMBL_ID>  (519) 
CHEMBL495402

>  <document_journal>  (519) 
Bioorg. Med. Chem. Lett.

>  <bao_endpoint>  (519) 
BAO_0000190

>  <potential_duplicate>  (519) 
False

>  <uo_units>  (519) 
UO_0000065

>  <canonical_smiles>  (519) 
C[C@H]1CN(CCO)CCN1c2cc3[nH]c(SC(C)(C)C)nc3cc2Cl

>  <parent_molecule_chembl_id>  (519) 
CHEMBL495402

>  <assay_type>  (519) 
F

>  <src_id>  (519) 
1

>  <ligand_efficiency>  (519) 
None

>  <standard_flag>  (519) 
True

>  <molecule_chembl_id>  (519) 
CHEMBL495402

>  <target_organism>  (519) 
Homo sapiens

>  <standard_units>  (519) 
nM

>  <record_id>  (519) 
766103

>  <document_chembl_id>  (519) 
CHEMBL1150320

>  <bao_format>  (519) 
BAO_0000219

>  <data_validity_description>  (519) 
None

>  <activity_id>  (519) 
2357139

>  <standard_type>  (519) 
IC50

>  <target_chembl_id>  (519) 
CHEMBL233

>  <data_validity_comment>  (519) 
None

>  <published_value>  (519) 
25

>  <document_year>  (519) 
2008

>  <target_pref_name>  (519) 
Mu opioid receptor

>  <assay_chembl_id>  (519) 
CHEMBL953424

>  <standard_relation>  (519) 
=

>  <assay_description>  (519) 
Agonist activity at human mu opioid receptor expressed in CHO cell membrane by [35S]GTPgammaS binding assay

>  <published_relation>  (519) 
=

>  <standard_value>  (519) 
25

>  <qudt_units>  (519) 
http://www.openphacts.org/units/Nanomolar

>  <target_tax_id>  (519) 
9606

>  <bao_label>  (519) 
cell-based format

>  <published_units>  (519) 
nM

>  <pchembl_value>  (519) 
7.6

>  <published_type>  (519) 
IC50

>  <activity_comment>  (519) 
None

$$$$

     RDKit          

 37 40  0  0  0  0  0  0  0  0999 V2000
    0.0000    0.0000    0.0000 C   0  0  0  0  0  0  0  0  0  0  0  0
    0.0000    0.0000    0.0000 C   0  0  0  0  0  0  0  0  0  0  0  0
    0.0000    0.0000    0.0000 O   0  0  0  0  0  0  0  0  0  0  0  0
    0.0000    0.0000    0.0000 C   0  0  0  0  0  0  0  0  0  0  0  0
    0.0000    0.0000    0.0000 C   0  0  0  0  0  0  0  0  0  0  0  0
    0.0000    0.0000    0.0000 C   0  0  0  0  0  0  0  0  0  0  0  0
    0.0000    0.0000    0.0000 C   0  0  0  0  0  0  0  0  0  0  0  0
    0.0000    0.0000    0.0000 C   0  0  0  0  0  0  0  0  0  0  0  0
    0.0000    0.0000    0.0000 C   0  0  0  0  0  0  0  0  0  0  0  0
    0.0000    0.0000    0.0000 N   0  0  0  0  0  0  0  0  0  0  0  0
    0.0000    0.0000    0.0000 C   0  0  0  0  0  0  0  0  0  0  0  0
    0.0000    0.0000    0.0000 C   0  0  0  0  0  0  0  0  0  0  0  0
    0.0000    0.0000    0.0000 C   0  0  0  0  0  0  0  0  0  0  0  0
    0.0000    0.0000    0.0000 C   0  0  0  0  0  0  0  0  0  0  0  0
    0.0000    0.0000    0.0000 O   0  0  0  0  0  0  0  0  0  0  0  0
    0.0000    0.0000    0.0000 C   0  0  0  0  0  0  0  0  0  0  0  0
    0.0000    0.0000    0.0000 C   0  0  0  0  0  0  0  0  0  0  0  0
    0.0000    0.0000    0.0000 C   0  0  0  0  0  0  0  0  0  0  0  0
    0.0000    0.0000    0.0000 C   0  0  0  0  0  0  0  0  0  0  0  0
    0.0000    0.0000    0.0000 Cl  0  0  0  0  0  0  0  0  0  0  0  0
    0.0000    0.0000    0.0000 C   0  0  0  0  0  0  0  0  0  0  0  0
    0.0000    0.0000    0.0000 C   0  0  0  0  0  0  0  0  0  0  0  0
    0.0000    0.0000    0.0000 C   0  0  0  0  0  0  0  0  0  0  0  0
    0.0000    0.0000    0.0000 C   0  0  0  0  0  0  0  0  0  0  0  0
    0.0000    0.0000    0.0000 C   0  0  0  0  0  0  0  0  0  0  0  0
    0.0000    0.0000    0.0000 C   0  0  0  0  0  0  0  0  0  0  0  0
    0.0000    0.0000    0.0000 O   0  0  0  0  0  0  0  0  0  0  0  0
    0.0000    0.0000    0.0000 C   0  0  0  0  0  0  0  0  0  0  0  0
    0.0000    0.0000    0.0000 F   0  0  0  0  0  0  0  0  0  0  0  0
    0.0000    0.0000    0.0000 F   0  0  0  0  0  0  0  0  0  0  0  0
    0.0000    0.0000    0.0000 F   0  0  0  0  0  0  0  0  0  0  0  0
    0.0000    0.0000    0.0000 C   0  0  0  0  0  0  0  0  0  0  0  0
    0.0000    0.0000    0.0000 C   0  0  0  0  0  0  0  0  0  0  0  0
    0.0000    0.0000    0.0000 C   0  0  0  0  0  0  0  0  0  0  0  0
    0.0000    0.0000    0.0000 C   0  0  0  0  0  0  0  0  0  0  0  0
    0.0000    0.0000    0.0000 O   0  0  0  0  0  0  0  0  0  0  0  0
    0.0000    0.0000    0.0000 O   0  0  0  0  0  0  0  0  0  0  0  0
  1  2  1  0
  2  3  1  0
  3  4  1  0
  4  5  2  0
  5  6  1  0
  6  7  2  0
  7  8  1  0
  8  9  1  0
  9 10  1  0
 10 11  1  0
 11 12  1  0
 11 13  2  0
 13 14  1  0
 14 15  2  0
 14 16  1  0
 16 17  2  0
 17 18  1  0
 18 19  2  0
 19 20  1  0
 19 21  1  0
 21 22  2  0
 13 23  1  0
 23 24  2  0
 24 25  1  0
 25 26  2  0
 26 27  1  0
 27 28  1  0
 28 29  1  0
 28 30  1  0
 28 31  1  0
 26 32  1  0
 32 33  2  0
  8 34  2  0
  2 35  1  0
 35 36  2  0
 35 37  1  0
 34  4  1  0
 33 10  1  0
 22 16  1  0
 33 23  1  0
M  END
>  <pIC50>  (520) 
5.73

>  <ChEMBL_ID>  (520) 
CHEMBL461571

>  <document_journal>  (520) 
Bioorg. Med. Chem. Lett.

>  <bao_endpoint>  (520) 
BAO_0000190

>  <potential_duplicate>  (520) 
False

>  <uo_units>  (520) 
UO_0000065

>  <canonical_smiles>  (520) 
C[C@@H](Oc1cccc(Cn2c(C)c(C(=O)c3ccc(Cl)cc3)c4ccc(OC(F)(F)F)cc24)c1)C(=O)O

>  <parent_molecule_chembl_id>  (520) 
CHEMBL461571

>  <assay_type>  (520) 
B

>  <src_id>  (520) 
1

>  <ligand_efficiency>  (520) 
{u'le': u'0.21', u'bei': u'10.77', u'sei': u'7.37', u'lle': u'-2.47'}

>  <standard_flag>  (520) 
True

>  <molecule_chembl_id>  (520) 
CHEMBL461571

>  <target_organism>  (520) 
Homo sapiens

>  <standard_units>  (520) 
nM

>  <record_id>  (520) 
722289

>  <document_chembl_id>  (520) 
CHEMBL1139415

>  <bao_format>  (520) 
BAO_0000357

>  <data_validity_description>  (520) 
None

>  <activity_id>  (520) 
2376493

>  <standard_type>  (520) 
IC50

>  <target_chembl_id>  (520) 
CHEMBL233

>  <data_validity_comment>  (520) 
None

>  <published_value>  (520) 
1.86

>  <document_year>  (520) 
2008

>  <target_pref_name>  (520) 
Mu opioid receptor

>  <assay_chembl_id>  (520) 
CHEMBL980777

>  <standard_relation>  (520) 
=

>  <assay_description>  (520) 
Displacement of radioligand from mu opioid receptor

>  <published_relation>  (520) 
=

>  <standard_value>  (520) 
1860

>  <qudt_units>  (520) 
http://www.openphacts.org/units/Nanomolar

>  <target_tax_id>  (520) 
9606

>  <bao_label>  (520) 
single protein format

>  <published_units>  (520) 
uM

>  <pchembl_value>  (520) 
5.73

>  <published_type>  (520) 
IC50

>  <activity_comment>  (520) 
None

$$$$

     RDKit          

 33 39  0  0  0  0  0  0  0  0999 V2000
    0.0000    0.0000    0.0000 O   0  0  0  0  0  0  0  0  0  0  0  0
    0.0000    0.0000    0.0000 C   0  0  0  0  0  0  0  0  0  0  0  0
    0.0000    0.0000    0.0000 C   0  0  0  0  0  0  0  0  0  0  0  0
    0.0000    0.0000    0.0000 C   0  0  0  0  0  0  0  0  0  0  0  0
    0.0000    0.0000    0.0000 C   0  0  0  0  0  0  0  0  0  0  0  0
    0.0000    0.0000    0.0000 C   0  0  0  0  0  0  0  0  0  0  0  0
    0.0000    0.0000    0.0000 C   0  0  0  0  0  0  0  0  0  0  0  0
    0.0000    0.0000    0.0000 N   0  0  0  0  0  0  0  0  0  0  0  0
    0.0000    0.0000    0.0000 C   0  0  0  0  0  0  0  0  0  0  0  0
    0.0000    0.0000    0.0000 C   0  0  0  0  0  0  0  0  0  0  0  0
    0.0000    0.0000    0.0000 C   0  0  0  0  0  0  0  0  0  0  0  0
    0.0000    0.0000    0.0000 C   0  0  0  0  0  0  0  0  0  0  0  0
    0.0000    0.0000    0.0000 C   0  0  0  0  0  0  0  0  0  0  0  0
    0.0000    0.0000    0.0000 C   0  0  0  0  0  0  0  0  0  0  0  0
    0.0000    0.0000    0.0000 C   0  0  0  0  0  0  0  0  0  0  0  0
    0.0000    0.0000    0.0000 C   0  0  0  0  0  0  0  0  0  0  0  0
    0.0000    0.0000    0.0000 O   0  0  0  0  0  0  0  0  0  0  0  0
    0.0000    0.0000    0.0000 C   0  0  0  0  0  0  0  0  0  0  0  0
    0.0000    0.0000    0.0000 C   0  0  0  0  0  0  0  0  0  0  0  0
    0.0000    0.0000    0.0000 C   0  0  0  0  0  0  0  0  0  0  0  0
    0.0000    0.0000    0.0000 C   0  0  0  0  0  0  0  0  0  0  0  0
    0.0000    0.0000    0.0000 C   0  0  0  0  0  0  0  0  0  0  0  0
    0.0000    0.0000    0.0000 C   0  0  0  0  0  0  0  0  0  0  0  0
    0.0000    0.0000    0.0000 O   0  0  0  0  0  0  0  0  0  0  0  0
    0.0000    0.0000    0.0000 N   0  0  0  0  0  0  0  0  0  0  0  0
    0.0000    0.0000    0.0000 C   0  0  0  0  0  0  0  0  0  0  0  0
    0.0000    0.0000    0.0000 O   0  0  0  0  0  0  0  0  0  0  0  0
    0.0000    0.0000    0.0000 C   0  0  0  0  0  0  0  0  0  0  0  0
    0.0000    0.0000    0.0000 C   0  0  0  0  0  0  0  0  0  0  0  0
    0.0000    0.0000    0.0000 C   0  0  0  0  0  0  0  0  0  0  0  0
    0.0000    0.0000    0.0000 N   0  0  0  0  0  0  0  0  0  0  0  0
    0.0000    0.0000    0.0000 C   0  0  0  0  0  0  0  0  0  0  0  0
    0.0000    0.0000    0.0000 C   0  0  0  0  0  0  0  0  0  0  0  0
  1  2  1  0
  2  3  2  0
  3  4  1  0
  4  5  2  0
  5  6  1  0
  6  7  1  0
  7  8  1  0
  8  9  1  0
  9 10  1  0
 10 11  1  0
 11 12  1  0
  8 13  1  0
 13 14  1  0
 14 15  1  0
 15 16  1  0
 16 17  1  0
 17 18  1  0
 18 19  2  0
 16 20  1  0
 20 21  1  0
 21 22  1  0
 22 23  1  0
 23 24  1  0
 20 25  1  0
 25 26  1  0
 26 27  2  0
 26 28  1  0
 28 29  2  0
 29 30  1  0
 30 31  2  0
 31 32  1  0
 32 33  2  0
 18  2  1  0
 19  5  1  0
 23  7  1  0
 12 10  1  0
 19 15  1  0
 23 15  1  0
 33 28  1  0
M  END
>  <pIC50>  (521) 
8.33

>  <ChEMBL_ID>  (521) 
CHEMBL522143

>  <document_journal>  (521) 
J. Med. Chem.

>  <bao_endpoint>  (521) 
BAO_0000190

>  <potential_duplicate>  (521) 
False

>  <uo_units>  (521) 
UO_0000065

>  <canonical_smiles>  (521) 
Oc1ccc2C[C@H]3N(CC4CC4)CC[C@@]56[C@@H](Oc1c25)[C@@H](CC[C@@]36O)NC(=O)c7ccncc7

>  <parent_molecule_chembl_id>  (521) 
CHEMBL522143

>  <assay_type>  (521) 
B

>  <src_id>  (521) 
1

>  <ligand_efficiency>  (521) 
{u'le': u'0.36', u'bei': u'19.31', u'sei': u'9.1', u'lle': u'6.73'}

>  <standard_flag>  (521) 
True

>  <molecule_chembl_id>  (521) 
CHEMBL522143

>  <target_organism>  (521) 
Homo sapiens

>  <standard_units>  (521) 
nM

>  <record_id>  (521) 
730069

>  <document_chembl_id>  (521) 
CHEMBL1140920

>  <bao_format>  (521) 
BAO_0000219

>  <data_validity_description>  (521) 
None

>  <activity_id>  (521) 
2396244

>  <standard_type>  (521) 
IC50

>  <target_chembl_id>  (521) 
CHEMBL233

>  <data_validity_comment>  (521) 
None

>  <published_value>  (521) 
2.29

>  <document_year>  (521) 
2009

>  <target_pref_name>  (521) 
Mu opioid receptor

>  <assay_chembl_id>  (521) 
CHEMBL995937

>  <standard_relation>  (521) 
=

>  <assay_description>  (521) 
Binding affinity to wild type mu opioid receptor expressed in CHO cells

>  <published_relation>  (521) 
=

>  <standard_value>  (521) 
2.29

>  <qudt_units>  (521) 
http://www.openphacts.org/units/Nanomolar

>  <target_tax_id>  (521) 
9606

>  <bao_label>  (521) 
cell-based format

>  <published_units>  (521) 
nM

>  <pchembl_value>  (521) 
8.64

>  <published_type>  (521) 
IC50

>  <activity_comment>  (521) 
None

$$$$

     RDKit          

 37 44  0  0  0  0  0  0  0  0999 V2000
    0.0000    0.0000    0.0000 O   0  0  0  0  0  0  0  0  0  0  0  0
    0.0000    0.0000    0.0000 C   0  0  0  0  0  0  0  0  0  0  0  0
    0.0000    0.0000    0.0000 C   0  0  0  0  0  0  0  0  0  0  0  0
    0.0000    0.0000    0.0000 C   0  0  0  0  0  0  0  0  0  0  0  0
    0.0000    0.0000    0.0000 C   0  0  0  0  0  0  0  0  0  0  0  0
    0.0000    0.0000    0.0000 C   0  0  0  0  0  0  0  0  0  0  0  0
    0.0000    0.0000    0.0000 C   0  0  0  0  0  0  0  0  0  0  0  0
    0.0000    0.0000    0.0000 N   0  0  0  0  0  0  0  0  0  0  0  0
    0.0000    0.0000    0.0000 C   0  0  0  0  0  0  0  0  0  0  0  0
    0.0000    0.0000    0.0000 C   0  0  0  0  0  0  0  0  0  0  0  0
    0.0000    0.0000    0.0000 C   0  0  0  0  0  0  0  0  0  0  0  0
    0.0000    0.0000    0.0000 C   0  0  0  0  0  0  0  0  0  0  0  0
    0.0000    0.0000    0.0000 C   0  0  0  0  0  0  0  0  0  0  0  0
    0.0000    0.0000    0.0000 C   0  0  0  0  0  0  0  0  0  0  0  0
    0.0000    0.0000    0.0000 C   0  0  0  0  0  0  0  0  0  0  0  0
    0.0000    0.0000    0.0000 C   0  0  0  0  0  0  0  0  0  0  0  0
    0.0000    0.0000    0.0000 O   0  0  0  0  0  0  0  0  0  0  0  0
    0.0000    0.0000    0.0000 C   0  0  0  0  0  0  0  0  0  0  0  0
    0.0000    0.0000    0.0000 C   0  0  0  0  0  0  0  0  0  0  0  0
    0.0000    0.0000    0.0000 C   0  0  0  0  0  0  0  0  0  0  0  0
    0.0000    0.0000    0.0000 C   0  0  0  0  0  0  0  0  0  0  0  0
    0.0000    0.0000    0.0000 C   0  0  0  0  0  0  0  0  0  0  0  0
    0.0000    0.0000    0.0000 C   0  0  0  0  0  0  0  0  0  0  0  0
    0.0000    0.0000    0.0000 O   0  0  0  0  0  0  0  0  0  0  0  0
    0.0000    0.0000    0.0000 N   0  0  0  0  0  0  0  0  0  0  0  0
    0.0000    0.0000    0.0000 C   0  0  0  0  0  0  0  0  0  0  0  0
    0.0000    0.0000    0.0000 O   0  0  0  0  0  0  0  0  0  0  0  0
    0.0000    0.0000    0.0000 C   0  0  0  0  0  0  0  0  0  0  0  0
    0.0000    0.0000    0.0000 C   0  0  0  0  0  0  0  0  0  0  0  0
    0.0000    0.0000    0.0000 C   0  0  0  0  0  0  0  0  0  0  0  0
    0.0000    0.0000    0.0000 C   0  0  0  0  0  0  0  0  0  0  0  0
    0.0000    0.0000    0.0000 C   0  0  0  0  0  0  0  0  0  0  0  0
    0.0000    0.0000    0.0000 C   0  0  0  0  0  0  0  0  0  0  0  0
    0.0000    0.0000    0.0000 C   0  0  0  0  0  0  0  0  0  0  0  0
    0.0000    0.0000    0.0000 C   0  0  0  0  0  0  0  0  0  0  0  0
    0.0000    0.0000    0.0000 C   0  0  0  0  0  0  0  0  0  0  0  0
    0.0000    0.0000    0.0000 N   0  0  0  0  0  0  0  0  0  0  0  0
  1  2  1  0
  2  3  2  0
  3  4  1  0
  4  5  2  0
  5  6  1  0
  6  7  1  0
  7  8  1  0
  8  9  1  0
  9 10  1  0
 10 11  1  0
 11 12  1  0
  8 13  1  0
 13 14  1  0
 14 15  1  0
 15 16  1  0
 16 17  1  0
 17 18  1  0
 18 19  2  0
 16 20  1  0
 20 21  1  0
 21 22  1  0
 22 23  1  0
 23 24  1  0
 20 25  1  0
 25 26  1  0
 26 27  2  0
 26 28  1  0
 28 29  2  0
 29 30  1  0
 30 31  2  0
 31 32  1  0
 32 33  2  0
 33 34  1  0
 34 35  2  0
 35 36  1  0
 36 37  2  0
 18  2  1  0
 19  5  1  0
 23  7  1  0
 12 10  1  0
 19 15  1  0
 23 15  1  0
 37 28  1  0
 35 30  1  0
M  END
>  <pIC50>  (522) 
7.78666666667

>  <ChEMBL_ID>  (522) 
CHEMBL522201

>  <document_journal>  (522) 
J. Med. Chem.

>  <bao_endpoint>  (522) 
BAO_0000190

>  <potential_duplicate>  (522) 
False

>  <uo_units>  (522) 
UO_0000065

>  <canonical_smiles>  (522) 
Oc1ccc2C[C@H]3N(CC4CC4)CC[C@@]56[C@@H](Oc1c25)[C@H](CC[C@@]36O)NC(=O)c7cc8ccccc8cn7

>  <parent_molecule_chembl_id>  (522) 
CHEMBL522201

>  <assay_type>  (522) 
B

>  <src_id>  (522) 
1

>  <ligand_efficiency>  (522) 
{u'le': u'0.31', u'bei': u'16.61', u'sei': u'8.71', u'lle': u'5.02'}

>  <standard_flag>  (522) 
True

>  <molecule_chembl_id>  (522) 
CHEMBL522201

>  <target_organism>  (522) 
Homo sapiens

>  <standard_units>  (522) 
nM

>  <record_id>  (522) 
730072

>  <document_chembl_id>  (522) 
CHEMBL1140920

>  <bao_format>  (522) 
BAO_0000219

>  <data_validity_description>  (522) 
None

>  <activity_id>  (522) 
2396245

>  <standard_type>  (522) 
IC50

>  <target_chembl_id>  (522) 
CHEMBL233

>  <data_validity_comment>  (522) 
None

>  <published_value>  (522) 
5.42

>  <document_year>  (522) 
2009

>  <target_pref_name>  (522) 
Mu opioid receptor

>  <assay_chembl_id>  (522) 
CHEMBL995937

>  <standard_relation>  (522) 
=

>  <assay_description>  (522) 
Binding affinity to wild type mu opioid receptor expressed in CHO cells

>  <published_relation>  (522) 
=

>  <standard_value>  (522) 
5.42

>  <qudt_units>  (522) 
http://www.openphacts.org/units/Nanomolar

>  <target_tax_id>  (522) 
9606

>  <bao_label>  (522) 
cell-based format

>  <published_units>  (522) 
nM

>  <pchembl_value>  (522) 
8.27

>  <published_type>  (522) 
IC50

>  <activity_comment>  (522) 
None

$$$$

     RDKit          

 28 32  0  0  0  0  0  0  0  0999 V2000
    0.0000    0.0000    0.0000 C   0  0  0  0  0  0  0  0  0  0  0  0
    0.0000    0.0000    0.0000 N   0  0  0  0  0  0  0  0  0  0  0  0
    0.0000    0.0000    0.0000 C   0  0  0  0  0  0  0  0  0  0  0  0
    0.0000    0.0000    0.0000 C   0  0  0  0  0  0  0  0  0  0  0  0
    0.0000    0.0000    0.0000 C   0  0  0  0  0  0  0  0  0  0  0  0
    0.0000    0.0000    0.0000 C   0  0  0  0  0  0  0  0  0  0  0  0
    0.0000    0.0000    0.0000 C   0  0  0  0  0  0  0  0  0  0  0  0
    0.0000    0.0000    0.0000 C   0  0  0  0  0  0  0  0  0  0  0  0
    0.0000    0.0000    0.0000 C   0  0  0  0  0  0  0  0  0  0  0  0
    0.0000    0.0000    0.0000 C   0  0  0  0  0  0  0  0  0  0  0  0
    0.0000    0.0000    0.0000 C   0  0  0  0  0  0  0  0  0  0  0  0
    0.0000    0.0000    0.0000 O   0  0  0  0  0  0  0  0  0  0  0  0
    0.0000    0.0000    0.0000 C   0  0  0  0  0  0  0  0  0  0  0  0
    0.0000    0.0000    0.0000 C   0  0  0  0  0  0  0  0  0  0  0  0
    0.0000    0.0000    0.0000 C   0  0  0  0  0  0  0  0  0  0  0  0
    0.0000    0.0000    0.0000 O   0  0  0  0  0  0  0  0  0  0  0  0
    0.0000    0.0000    0.0000 C   0  0  0  0  0  0  0  0  0  0  0  0
    0.0000    0.0000    0.0000 C   0  0  0  0  0  0  0  0  0  0  0  0
    0.0000    0.0000    0.0000 C   0  0  0  0  0  0  0  0  0  0  0  0
    0.0000    0.0000    0.0000 C   0  0  0  0  0  0  0  0  0  0  0  0
    0.0000    0.0000    0.0000 C   0  0  0  0  0  0  0  0  0  0  0  0
    0.0000    0.0000    0.0000 C   0  0  0  0  0  0  0  0  0  0  0  0
    0.0000    0.0000    0.0000 C   0  0  0  0  0  0  0  0  0  0  0  0
    0.0000    0.0000    0.0000 O   0  0  0  0  0  0  0  0  0  0  0  0
    0.0000    0.0000    0.0000 N   0  0  0  0  0  0  0  0  0  0  0  0
    0.0000    0.0000    0.0000 C   0  0  0  0  0  0  0  0  0  0  0  0
    0.0000    0.0000    0.0000 O   0  0  0  0  0  0  0  0  0  0  0  0
    0.0000    0.0000    0.0000 C   0  0  0  0  0  0  0  0  0  0  0  0
  1  2  1  0
  2  3  1  0
  3  4  1  0
  4  5  1  0
  5  6  1  0
  2  7  1  0
  7  8  1  0
  8  9  1  0
  9 10  1  0
 10 11  1  0
 11 12  2  0
 11 13  1  0
 13 14  1  0
 14 15  1  0
 15 16  1  0
 15 17  1  0
 17 18  1  0
 18 19  1  0
 19 20  2  0
 20 21  1  0
 21 22  2  0
 22 23  1  0
 23 24  2  0
 23 25  1  0
 22 26  1  0
 26 27  1  0
 26 28  2  0
 17  2  1  0
  6  4  1  0
 15  9  1  0
 28  9  1  0
 28 19  1  0
M  CHG  1   2   1
M  END
>  <pIC50>  (523) 
7.28

>  <ChEMBL_ID>  (523) 
CHEMBL511302

>  <document_journal>  (523) 
Bioorg. Med. Chem. Lett.

>  <bao_endpoint>  (523) 
BAO_0000190

>  <potential_duplicate>  (523) 
False

>  <uo_units>  (523) 
UO_0000065

>  <canonical_smiles>  (523) 
[I-].C[N+]1(CC2CC2)CC[C@]34CC(=O)CC[C@@]3(O)[C@H]1Cc5ccc(C(=O)N)c(O)c45

>  <parent_molecule_chembl_id>  (523) 
CHEMBL1187601

>  <assay_type>  (523) 
F

>  <src_id>  (523) 
1

>  <ligand_efficiency>  (523) 
None

>  <standard_flag>  (523) 
True

>  <molecule_chembl_id>  (523) 
CHEMBL511302

>  <target_organism>  (523) 
Homo sapiens

>  <standard_units>  (523) 
nM

>  <record_id>  (523) 
809875

>  <document_chembl_id>  (523) 
CHEMBL1153960

>  <bao_format>  (523) 
BAO_0000219

>  <data_validity_description>  (523) 
None

>  <activity_id>  (523) 
2407450

>  <standard_type>  (523) 
IC50

>  <target_chembl_id>  (523) 
CHEMBL233

>  <data_validity_comment>  (523) 
None

>  <published_value>  (523) 
52

>  <document_year>  (523) 
2009

>  <target_pref_name>  (523) 
Mu opioid receptor

>  <assay_chembl_id>  (523) 
CHEMBL958397

>  <standard_relation>  (523) 
=

>  <assay_description>  (523) 
Antagonist activity against human mu opioid receptor expressed in CHO cells assessed as inhibition of DAMGO-stimulated [35S]GTPgammaS binding

>  <published_relation>  (523) 
=

>  <standard_value>  (523) 
52

>  <qudt_units>  (523) 
http://www.openphacts.org/units/Nanomolar

>  <target_tax_id>  (523) 
9606

>  <bao_label>  (523) 
cell-based format

>  <published_units>  (523) 
nM

>  <pchembl_value>  (523) 
7.28

>  <published_type>  (523) 
IC50

>  <activity_comment>  (523) 
None

$$$$

     RDKit          

 24 29  0  0  0  0  0  0  0  0999 V2000
    0.0000    0.0000    0.0000 O   0  0  0  0  0  0  0  0  0  0  0  0
    0.0000    0.0000    0.0000 C   0  0  0  0  0  0  0  0  0  0  0  0
    0.0000    0.0000    0.0000 C   0  0  0  0  0  0  0  0  0  0  0  0
    0.0000    0.0000    0.0000 C   0  0  0  0  0  0  0  0  0  0  0  0
    0.0000    0.0000    0.0000 C   0  0  0  0  0  0  0  0  0  0  0  0
    0.0000    0.0000    0.0000 C   0  0  0  0  0  0  0  0  0  0  0  0
    0.0000    0.0000    0.0000 C   0  0  0  0  0  0  0  0  0  0  0  0
    0.0000    0.0000    0.0000 N   0  0  0  0  0  0  0  0  0  0  0  0
    0.0000    0.0000    0.0000 C   0  0  0  0  0  0  0  0  0  0  0  0
    0.0000    0.0000    0.0000 C   0  0  0  0  0  0  0  0  0  0  0  0
    0.0000    0.0000    0.0000 C   0  0  0  0  0  0  0  0  0  0  0  0
    0.0000    0.0000    0.0000 C   0  0  0  0  0  0  0  0  0  0  0  0
    0.0000    0.0000    0.0000 C   0  0  0  0  0  0  0  0  0  0  0  0
    0.0000    0.0000    0.0000 C   0  0  0  0  0  0  0  0  0  0  0  0
    0.0000    0.0000    0.0000 C   0  0  0  0  0  0  0  0  0  0  0  0
    0.0000    0.0000    0.0000 C   0  0  0  0  0  0  0  0  0  0  0  0
    0.0000    0.0000    0.0000 C   0  0  0  0  0  0  0  0  0  0  0  0
    0.0000    0.0000    0.0000 C   0  0  0  0  0  0  0  0  0  0  0  0
    0.0000    0.0000    0.0000 C   0  0  0  0  0  0  0  0  0  0  0  0
    0.0000    0.0000    0.0000 C   0  0  0  0  0  0  0  0  0  0  0  0
    0.0000    0.0000    0.0000 O   0  0  0  0  0  0  0  0  0  0  0  0
    0.0000    0.0000    0.0000 O   0  0  0  0  0  0  0  0  0  0  0  0
    0.0000    0.0000    0.0000 C   0  0  0  0  0  0  0  0  0  0  0  0
    0.0000    0.0000    0.0000 C   0  0  0  0  0  0  0  0  0  0  0  0
  1  2  1  0
  2  3  2  0
  3  4  1  0
  4  5  2  0
  5  6  1  0
  6  7  1  0
  7  8  1  0
  8  9  1  0
  9 10  1  0
 10 11  1  0
 11 12  1  0
  8 13  1  0
 13 14  1  0
 14 15  1  0
 15 16  1  0
 16 17  1  0
 17 18  1  0
 18 19  1  0
 19 20  1  0
 20 21  1  0
 16 22  1  0
 22 23  1  0
 23 24  2  0
 23  2  1  0
 24  5  1  0
 20  7  1  0
 12 10  1  0
 20 15  1  0
 24 15  1  0
M  END
>  <pIC50>  (524) 
8.36

>  <ChEMBL_ID>  (524) 
CHEMBL511816

>  <document_journal>  (524) 
Bioorg. Med. Chem. Lett.

>  <bao_endpoint>  (524) 
BAO_0000190

>  <potential_duplicate>  (524) 
False

>  <uo_units>  (524) 
UO_0000065

>  <canonical_smiles>  (524) 
Oc1ccc2C[C@H]3N(CC4CC4)CC[C@]56[C@H](CCC[C@@]35O)Oc1c26

>  <parent_molecule_chembl_id>  (524) 
CHEMBL511816

>  <assay_type>  (524) 
F

>  <src_id>  (524) 
1

>  <ligand_efficiency>  (524) 
None

>  <standard_flag>  (524) 
True

>  <molecule_chembl_id>  (524) 
CHEMBL511816

>  <target_organism>  (524) 
Homo sapiens

>  <standard_units>  (524) 
nM

>  <record_id>  (524) 
810062

>  <document_chembl_id>  (524) 
CHEMBL1153960

>  <bao_format>  (524) 
BAO_0000219

>  <data_validity_description>  (524) 
None

>  <activity_id>  (524) 
2417672

>  <standard_type>  (524) 
IC50

>  <target_chembl_id>  (524) 
CHEMBL233

>  <data_validity_comment>  (524) 
None

>  <published_value>  (524) 
4.4

>  <document_year>  (524) 
2009

>  <target_pref_name>  (524) 
Mu opioid receptor

>  <assay_chembl_id>  (524) 
CHEMBL958397

>  <standard_relation>  (524) 
=

>  <assay_description>  (524) 
Antagonist activity against human mu opioid receptor expressed in CHO cells assessed as inhibition of DAMGO-stimulated [35S]GTPgammaS binding

>  <published_relation>  (524) 
=

>  <standard_value>  (524) 
4.4

>  <qudt_units>  (524) 
http://www.openphacts.org/units/Nanomolar

>  <target_tax_id>  (524) 
9606

>  <bao_label>  (524) 
cell-based format

>  <published_units>  (524) 
nM

>  <pchembl_value>  (524) 
8.36

>  <published_type>  (524) 
IC50

>  <activity_comment>  (524) 
None

$$$$

     RDKit          

 26 31  0  0  0  0  0  0  0  0999 V2000
    0.0000    0.0000    0.0000 N   0  0  0  0  0  0  0  0  0  0  0  0
    0.0000    0.0000    0.0000 C   0  0  0  0  0  0  0  0  0  0  0  0
    0.0000    0.0000    0.0000 O   0  0  0  0  0  0  0  0  0  0  0  0
    0.0000    0.0000    0.0000 C   0  0  0  0  0  0  0  0  0  0  0  0
    0.0000    0.0000    0.0000 C   0  0  0  0  0  0  0  0  0  0  0  0
    0.0000    0.0000    0.0000 C   0  0  0  0  0  0  0  0  0  0  0  0
    0.0000    0.0000    0.0000 C   0  0  0  0  0  0  0  0  0  0  0  0
    0.0000    0.0000    0.0000 C   0  0  0  0  0  0  0  0  0  0  0  0
    0.0000    0.0000    0.0000 C   0  0  0  0  0  0  0  0  0  0  0  0
    0.0000    0.0000    0.0000 N   0  0  0  0  0  0  0  0  0  0  0  0
    0.0000    0.0000    0.0000 C   0  0  0  0  0  0  0  0  0  0  0  0
    0.0000    0.0000    0.0000 C   0  0  0  0  0  0  0  0  0  0  0  0
    0.0000    0.0000    0.0000 C   0  0  0  0  0  0  0  0  0  0  0  0
    0.0000    0.0000    0.0000 C   0  0  0  0  0  0  0  0  0  0  0  0
    0.0000    0.0000    0.0000 C   0  0  0  0  0  0  0  0  0  0  0  0
    0.0000    0.0000    0.0000 C   0  0  0  0  0  0  0  0  0  0  0  0
    0.0000    0.0000    0.0000 C   0  0  0  0  0  0  0  0  0  0  0  0
    0.0000    0.0000    0.0000 C   0  0  0  0  0  0  0  0  0  0  0  0
    0.0000    0.0000    0.0000 C   0  0  0  0  0  0  0  0  0  0  0  0
    0.0000    0.0000    0.0000 C   0  0  0  0  0  0  0  0  0  0  0  0
    0.0000    0.0000    0.0000 C   0  0  0  0  0  0  0  0  0  0  0  0
    0.0000    0.0000    0.0000 C   0  0  0  0  0  0  0  0  0  0  0  0
    0.0000    0.0000    0.0000 O   0  0  0  0  0  0  0  0  0  0  0  0
    0.0000    0.0000    0.0000 O   0  0  0  0  0  0  0  0  0  0  0  0
    0.0000    0.0000    0.0000 C   0  0  0  0  0  0  0  0  0  0  0  0
    0.0000    0.0000    0.0000 C   0  0  0  0  0  0  0  0  0  0  0  0
  1  2  1  0
  2  3  2  0
  2  4  1  0
  4  5  2  0
  5  6  1  0
  6  7  2  0
  7  8  1  0
  8  9  1  0
  9 10  1  0
 10 11  1  0
 11 12  1  0
 12 13  1  0
 13 14  1  0
 10 15  1  0
 15 16  1  0
 16 17  1  0
 17 18  1  0
 18 19  1  0
 19 20  1  0
 20 21  1  0
 21 22  1  0
 22 23  1  0
 18 24  1  0
 24 25  1  0
 25 26  2  0
 25  4  1  0
 26  7  1  0
 22  9  1  0
 14 12  1  0
 22 17  1  0
 26 17  1  0
M  END
>  <pIC50>  (525) 
7.27

>  <ChEMBL_ID>  (525) 
CHEMBL511621

>  <document_journal>  (525) 
Bioorg. Med. Chem. Lett.

>  <bao_endpoint>  (525) 
BAO_0000190

>  <potential_duplicate>  (525) 
False

>  <uo_units>  (525) 
UO_0000065

>  <canonical_smiles>  (525) 
NC(=O)c1ccc2C[C@H]3N(CC4CC4)CC[C@]56[C@H](CCC[C@@]35O)Oc1c26

>  <parent_molecule_chembl_id>  (525) 
CHEMBL511621

>  <assay_type>  (525) 
F

>  <src_id>  (525) 
1

>  <ligand_efficiency>  (525) 
None

>  <standard_flag>  (525) 
True

>  <molecule_chembl_id>  (525) 
CHEMBL511621

>  <target_organism>  (525) 
Homo sapiens

>  <standard_units>  (525) 
nM

>  <record_id>  (525) 
810061

>  <document_chembl_id>  (525) 
CHEMBL1153960

>  <bao_format>  (525) 
BAO_0000219

>  <data_validity_description>  (525) 
None

>  <activity_id>  (525) 
2417676

>  <standard_type>  (525) 
IC50

>  <target_chembl_id>  (525) 
CHEMBL233

>  <data_validity_comment>  (525) 
None

>  <published_value>  (525) 
54

>  <document_year>  (525) 
2009

>  <target_pref_name>  (525) 
Mu opioid receptor

>  <assay_chembl_id>  (525) 
CHEMBL958397

>  <standard_relation>  (525) 
=

>  <assay_description>  (525) 
Antagonist activity against human mu opioid receptor expressed in CHO cells assessed as inhibition of DAMGO-stimulated [35S]GTPgammaS binding

>  <published_relation>  (525) 
=

>  <standard_value>  (525) 
54

>  <qudt_units>  (525) 
http://www.openphacts.org/units/Nanomolar

>  <target_tax_id>  (525) 
9606

>  <bao_label>  (525) 
cell-based format

>  <published_units>  (525) 
nM

>  <pchembl_value>  (525) 
7.27

>  <published_type>  (525) 
IC50

>  <activity_comment>  (525) 
None

$$$$

     RDKit          

 26 30  0  0  0  0  0  0  0  0999 V2000
    0.0000    0.0000    0.0000 N   0  0  0  0  0  0  0  0  0  0  0  0
    0.0000    0.0000    0.0000 C   0  0  0  0  0  0  0  0  0  0  0  0
    0.0000    0.0000    0.0000 O   0  0  0  0  0  0  0  0  0  0  0  0
    0.0000    0.0000    0.0000 C   0  0  0  0  0  0  0  0  0  0  0  0
    0.0000    0.0000    0.0000 C   0  0  0  0  0  0  0  0  0  0  0  0
    0.0000    0.0000    0.0000 C   0  0  0  0  0  0  0  0  0  0  0  0
    0.0000    0.0000    0.0000 C   0  0  0  0  0  0  0  0  0  0  0  0
    0.0000    0.0000    0.0000 C   0  0  0  0  0  0  0  0  0  0  0  0
    0.0000    0.0000    0.0000 C   0  0  0  0  0  0  0  0  0  0  0  0
    0.0000    0.0000    0.0000 N   0  0  0  0  0  0  0  0  0  0  0  0
    0.0000    0.0000    0.0000 C   0  0  0  0  0  0  0  0  0  0  0  0
    0.0000    0.0000    0.0000 C   0  0  0  0  0  0  0  0  0  0  0  0
    0.0000    0.0000    0.0000 C   0  0  0  0  0  0  0  0  0  0  0  0
    0.0000    0.0000    0.0000 C   0  0  0  0  0  0  0  0  0  0  0  0
    0.0000    0.0000    0.0000 C   0  0  0  0  0  0  0  0  0  0  0  0
    0.0000    0.0000    0.0000 C   0  0  0  0  0  0  0  0  0  0  0  0
    0.0000    0.0000    0.0000 C   0  0  0  0  0  0  0  0  0  0  0  0
    0.0000    0.0000    0.0000 C   0  0  0  0  0  0  0  0  0  0  0  0
    0.0000    0.0000    0.0000 C   0  0  0  0  0  0  0  0  0  0  0  0
    0.0000    0.0000    0.0000 C   0  0  0  0  0  0  0  0  0  0  0  0
    0.0000    0.0000    0.0000 C   0  0  0  0  0  0  0  0  0  0  0  0
    0.0000    0.0000    0.0000 C   0  0  0  0  0  0  0  0  0  0  0  0
    0.0000    0.0000    0.0000 O   0  0  0  0  0  0  0  0  0  0  0  0
    0.0000    0.0000    0.0000 C   0  0  0  0  0  0  0  0  0  0  0  0
    0.0000    0.0000    0.0000 C   0  0  0  0  0  0  0  0  0  0  0  0
    0.0000    0.0000    0.0000 O   0  0  0  0  0  0  0  0  0  0  0  0
  1  2  1  0
  2  3  2  0
  2  4  1  0
  4  5  2  0
  5  6  1  0
  6  7  2  0
  7  8  1  0
  8  9  1  0
  9 10  1  0
 10 11  1  0
 11 12  1  0
 12 13  1  0
 13 14  1  0
 10 15  1  0
 15 16  1  0
 16 17  1  0
 17 18  1  0
 18 19  1  0
 19 20  1  0
 20 21  1  0
 21 22  1  0
 22 23  1  0
 17 24  1  0
 24 25  2  0
 25 26  1  0
 25  4  1  0
 24  7  1  0
 22  9  1  0
 14 12  1  0
 22 17  1  0
M  END
>  <pIC50>  (526) 
8.42

>  <ChEMBL_ID>  (526) 
CHEMBL470005

>  <document_journal>  (526) 
Bioorg. Med. Chem. Lett.

>  <bao_endpoint>  (526) 
BAO_0000190

>  <potential_duplicate>  (526) 
False

>  <uo_units>  (526) 
UO_0000065

>  <canonical_smiles>  (526) 
NC(=O)c1ccc2C[C@H]3N(CC4CC4)CC[C@@]5(CCCC[C@@]35O)c2c1O

>  <parent_molecule_chembl_id>  (526) 
CHEMBL470005

>  <assay_type>  (526) 
F

>  <src_id>  (526) 
1

>  <ligand_efficiency>  (526) 
None

>  <standard_flag>  (526) 
True

>  <molecule_chembl_id>  (526) 
CHEMBL470005

>  <target_organism>  (526) 
Homo sapiens

>  <standard_units>  (526) 
nM

>  <record_id>  (526) 
810060

>  <document_chembl_id>  (526) 
CHEMBL1153960

>  <bao_format>  (526) 
BAO_0000219

>  <data_validity_description>  (526) 
None

>  <activity_id>  (526) 
2417680

>  <standard_type>  (526) 
IC50

>  <target_chembl_id>  (526) 
CHEMBL233

>  <data_validity_comment>  (526) 
None

>  <published_value>  (526) 
3.8

>  <document_year>  (526) 
2009

>  <target_pref_name>  (526) 
Mu opioid receptor

>  <assay_chembl_id>  (526) 
CHEMBL958397

>  <standard_relation>  (526) 
=

>  <assay_description>  (526) 
Antagonist activity against human mu opioid receptor expressed in CHO cells assessed as inhibition of DAMGO-stimulated [35S]GTPgammaS binding

>  <published_relation>  (526) 
=

>  <standard_value>  (526) 
3.8

>  <qudt_units>  (526) 
http://www.openphacts.org/units/Nanomolar

>  <target_tax_id>  (526) 
9606

>  <bao_label>  (526) 
cell-based format

>  <published_units>  (526) 
nM

>  <pchembl_value>  (526) 
8.42

>  <published_type>  (526) 
IC50

>  <activity_comment>  (526) 
None

$$$$

     RDKit          

 26 31  0  0  0  0  0  0  0  0999 V2000
    0.0000    0.0000    0.0000 C   0  0  0  0  0  0  0  0  0  0  0  0
    0.0000    0.0000    0.0000 N   0  0  0  0  0  0  0  0  0  0  0  0
    0.0000    0.0000    0.0000 C   0  0  0  0  0  0  0  0  0  0  0  0
    0.0000    0.0000    0.0000 C   0  0  0  0  0  0  0  0  0  0  0  0
    0.0000    0.0000    0.0000 C   0  0  0  0  0  0  0  0  0  0  0  0
    0.0000    0.0000    0.0000 C   0  0  0  0  0  0  0  0  0  0  0  0
    0.0000    0.0000    0.0000 C   0  0  0  0  0  0  0  0  0  0  0  0
    0.0000    0.0000    0.0000 C   0  0  0  0  0  0  0  0  0  0  0  0
    0.0000    0.0000    0.0000 C   0  0  0  0  0  0  0  0  0  0  0  0
    0.0000    0.0000    0.0000 C   0  0  0  0  0  0  0  0  0  0  0  0
    0.0000    0.0000    0.0000 O   0  0  0  0  0  0  0  0  0  0  0  0
    0.0000    0.0000    0.0000 C   0  0  0  0  0  0  0  0  0  0  0  0
    0.0000    0.0000    0.0000 C   0  0  0  0  0  0  0  0  0  0  0  0
    0.0000    0.0000    0.0000 O   0  0  0  0  0  0  0  0  0  0  0  0
    0.0000    0.0000    0.0000 C   0  0  0  0  0  0  0  0  0  0  0  0
    0.0000    0.0000    0.0000 C   0  0  0  0  0  0  0  0  0  0  0  0
    0.0000    0.0000    0.0000 C   0  0  0  0  0  0  0  0  0  0  0  0
    0.0000    0.0000    0.0000 C   0  0  0  0  0  0  0  0  0  0  0  0
    0.0000    0.0000    0.0000 C   0  0  0  0  0  0  0  0  0  0  0  0
    0.0000    0.0000    0.0000 C   0  0  0  0  0  0  0  0  0  0  0  0
    0.0000    0.0000    0.0000 O   0  0  0  0  0  0  0  0  0  0  0  0
    0.0000    0.0000    0.0000 C   0  0  0  0  0  0  0  0  0  0  0  0
    0.0000    0.0000    0.0000 C   0  0  0  0  0  0  0  0  0  0  0  0
    0.0000    0.0000    0.0000 C   0  0  0  0  0  0  0  0  0  0  0  0
    0.0000    0.0000    0.0000 O   0  0  0  0  0  0  0  0  0  0  0  0
    0.0000    0.0000    0.0000 C   0  0  0  0  0  0  0  0  0  0  0  0
  1  2  1  0
  2  3  1  0
  3  4  1  0
  4  5  1  0
  5  6  1  0
  2  7  1  0
  7  8  1  0
  8  9  1  0
  9 10  1  0
 10 11  1  0
 11 12  1  0
 12 13  2  0
 13 14  1  0
 13 15  1  0
 15 16  2  0
 16 17  1  0
 17 18  1  0
 18 19  1  0
 19 20  1  0
 20 21  1  0
 20 22  1  0
 22 23  1  0
 23 24  1  0
 24 25  2  0
 17 26  2  0
 19  2  1  0
  6  4  1  0
 20  9  1  0
 26  9  1  0
 24 10  1  0
 26 12  1  0
M  CHG  1   2   1
M  END
>  <pIC50>  (527) 
6.77

>  <ChEMBL_ID>  (527) 
CHEMBL470617

>  <document_journal>  (527) 
Bioorg. Med. Chem. Lett.

>  <bao_endpoint>  (527) 
BAO_0000190

>  <potential_duplicate>  (527) 
False

>  <uo_units>  (527) 
UO_0000065

>  <canonical_smiles>  (527) 
[I-].C[N+]1(CC2CC2)CC[C@]34[C@H]5Oc6c(O)ccc(C[C@@H]1[C@]3(O)CCC5=O)c46

>  <parent_molecule_chembl_id>  (527) 
CHEMBL1186579

>  <assay_type>  (527) 
F

>  <src_id>  (527) 
1

>  <ligand_efficiency>  (527) 
None

>  <standard_flag>  (527) 
True

>  <molecule_chembl_id>  (527) 
CHEMBL470617

>  <target_organism>  (527) 
Homo sapiens

>  <standard_units>  (527) 
nM

>  <record_id>  (527) 
809976

>  <document_chembl_id>  (527) 
CHEMBL1153960

>  <bao_format>  (527) 
BAO_0000219

>  <data_validity_description>  (527) 
None

>  <activity_id>  (527) 
2417682

>  <standard_type>  (527) 
IC50

>  <target_chembl_id>  (527) 
CHEMBL233

>  <data_validity_comment>  (527) 
None

>  <published_value>  (527) 
170

>  <document_year>  (527) 
2009

>  <target_pref_name>  (527) 
Mu opioid receptor

>  <assay_chembl_id>  (527) 
CHEMBL958397

>  <standard_relation>  (527) 
=

>  <assay_description>  (527) 
Antagonist activity against human mu opioid receptor expressed in CHO cells assessed as inhibition of DAMGO-stimulated [35S]GTPgammaS binding

>  <published_relation>  (527) 
=

>  <standard_value>  (527) 
170

>  <qudt_units>  (527) 
http://www.openphacts.org/units/Nanomolar

>  <target_tax_id>  (527) 
9606

>  <bao_label>  (527) 
cell-based format

>  <published_units>  (527) 
nM

>  <pchembl_value>  (527) 
6.77

>  <published_type>  (527) 
IC50

>  <activity_comment>  (527) 
None

$$$$

     RDKit          

 28 32  0  0  0  0  0  0  0  0999 V2000
    0.0000    0.0000    0.0000 N   0  0  0  0  0  0  0  0  0  0  0  0
    0.0000    0.0000    0.0000 C   0  0  0  0  0  0  0  0  0  0  0  0
    0.0000    0.0000    0.0000 O   0  0  0  0  0  0  0  0  0  0  0  0
    0.0000    0.0000    0.0000 C   0  0  0  0  0  0  0  0  0  0  0  0
    0.0000    0.0000    0.0000 C   0  0  0  0  0  0  0  0  0  0  0  0
    0.0000    0.0000    0.0000 C   0  0  0  0  0  0  0  0  0  0  0  0
    0.0000    0.0000    0.0000 C   0  0  0  0  0  0  0  0  0  0  0  0
    0.0000    0.0000    0.0000 C   0  0  0  0  0  0  0  0  0  0  0  0
    0.0000    0.0000    0.0000 C   0  0  0  0  0  0  0  0  0  0  0  0
    0.0000    0.0000    0.0000 N   0  0  0  0  0  0  0  0  0  0  0  0
    0.0000    0.0000    0.0000 C   0  0  0  0  0  0  0  0  0  0  0  0
    0.0000    0.0000    0.0000 C   0  0  0  0  0  0  0  0  0  0  0  0
    0.0000    0.0000    0.0000 C   0  0  0  0  0  0  0  0  0  0  0  0
    0.0000    0.0000    0.0000 C   0  0  0  0  0  0  0  0  0  0  0  0
    0.0000    0.0000    0.0000 C   0  0  0  0  0  0  0  0  0  0  0  0
    0.0000    0.0000    0.0000 C   0  0  0  0  0  0  0  0  0  0  0  0
    0.0000    0.0000    0.0000 C   0  0  0  0  0  0  0  0  0  0  0  0
    0.0000    0.0000    0.0000 C   0  0  0  0  0  0  0  0  0  0  0  0
    0.0000    0.0000    0.0000 C   0  0  0  0  0  0  0  0  0  0  0  0
    0.0000    0.0000    0.0000 C   0  0  0  0  0  0  0  0  0  0  0  0
    0.0000    0.0000    0.0000 O   0  0  0  0  0  0  0  0  0  0  0  0
    0.0000    0.0000    0.0000 C   0  0  0  0  0  0  0  0  0  0  0  0
    0.0000    0.0000    0.0000 C   0  0  0  0  0  0  0  0  0  0  0  0
    0.0000    0.0000    0.0000 C   0  0  0  0  0  0  0  0  0  0  0  0
    0.0000    0.0000    0.0000 O   0  0  0  0  0  0  0  0  0  0  0  0
    0.0000    0.0000    0.0000 C   0  0  0  0  0  0  0  0  0  0  0  0
    0.0000    0.0000    0.0000 C   0  0  0  0  0  0  0  0  0  0  0  0
    0.0000    0.0000    0.0000 O   0  0  0  0  0  0  0  0  0  0  0  0
  1  2  1  0
  2  3  2  0
  2  4  1  0
  4  5  2  0
  5  6  1  0
  6  7  2  0
  7  8  1  0
  8  9  1  0
  9 10  1  0
 10 11  1  0
 11 12  1  0
 12 13  1  0
 13 14  1  0
 14 15  1  0
 10 16  1  0
 16 17  1  0
 17 18  1  0
 18 19  1  0
 19 20  1  0
 20 21  1  0
 20 22  1  0
 22 23  1  0
 23 24  1  0
 24 25  1  0
 18 26  1  0
 26 27  2  0
 27 28  1  0
 27  4  1  0
 26  7  1  0
 24  9  1  0
 15 12  1  0
 24 18  1  0
M  END
>  <pIC50>  (528) 
8.19

>  <ChEMBL_ID>  (528) 
CHEMBL511645

>  <document_journal>  (528) 
Bioorg. Med. Chem. Lett.

>  <bao_endpoint>  (528) 
BAO_0000190

>  <potential_duplicate>  (528) 
False

>  <uo_units>  (528) 
UO_0000065

>  <canonical_smiles>  (528) 
NC(=O)c1ccc2C[C@H]3N(CC4CCC4)CC[C@@]5(C[C@H](O)CC[C@@]35O)c2c1O

>  <parent_molecule_chembl_id>  (528) 
CHEMBL511645

>  <assay_type>  (528) 
F

>  <src_id>  (528) 
1

>  <ligand_efficiency>  (528) 
None

>  <standard_flag>  (528) 
True

>  <molecule_chembl_id>  (528) 
CHEMBL511645

>  <target_organism>  (528) 
Homo sapiens

>  <standard_units>  (528) 
nM

>  <record_id>  (528) 
809874

>  <document_chembl_id>  (528) 
CHEMBL1153960

>  <bao_format>  (528) 
BAO_0000219

>  <data_validity_description>  (528) 
None

>  <activity_id>  (528) 
2417687

>  <standard_type>  (528) 
IC50

>  <target_chembl_id>  (528) 
CHEMBL233

>  <data_validity_comment>  (528) 
None

>  <published_value>  (528) 
6.4

>  <document_year>  (528) 
2009

>  <target_pref_name>  (528) 
Mu opioid receptor

>  <assay_chembl_id>  (528) 
CHEMBL958397

>  <standard_relation>  (528) 
=

>  <assay_description>  (528) 
Antagonist activity against human mu opioid receptor expressed in CHO cells assessed as inhibition of DAMGO-stimulated [35S]GTPgammaS binding

>  <published_relation>  (528) 
=

>  <standard_value>  (528) 
6.4

>  <qudt_units>  (528) 
http://www.openphacts.org/units/Nanomolar

>  <target_tax_id>  (528) 
9606

>  <bao_label>  (528) 
cell-based format

>  <published_units>  (528) 
nM

>  <pchembl_value>  (528) 
8.19

>  <published_type>  (528) 
IC50

>  <activity_comment>  (528) 
None

$$$$

     RDKit          

 28 32  0  0  0  0  0  0  0  0999 V2000
    0.0000    0.0000    0.0000 N   0  0  0  0  0  0  0  0  0  0  0  0
    0.0000    0.0000    0.0000 C   0  0  0  0  0  0  0  0  0  0  0  0
    0.0000    0.0000    0.0000 O   0  0  0  0  0  0  0  0  0  0  0  0
    0.0000    0.0000    0.0000 C   0  0  0  0  0  0  0  0  0  0  0  0
    0.0000    0.0000    0.0000 C   0  0  0  0  0  0  0  0  0  0  0  0
    0.0000    0.0000    0.0000 C   0  0  0  0  0  0  0  0  0  0  0  0
    0.0000    0.0000    0.0000 C   0  0  0  0  0  0  0  0  0  0  0  0
    0.0000    0.0000    0.0000 C   0  0  0  0  0  0  0  0  0  0  0  0
    0.0000    0.0000    0.0000 C   0  0  0  0  0  0  0  0  0  0  0  0
    0.0000    0.0000    0.0000 N   0  0  0  0  0  0  0  0  0  0  0  0
    0.0000    0.0000    0.0000 C   0  0  0  0  0  0  0  0  0  0  0  0
    0.0000    0.0000    0.0000 C   0  0  0  0  0  0  0  0  0  0  0  0
    0.0000    0.0000    0.0000 C   0  0  0  0  0  0  0  0  0  0  0  0
    0.0000    0.0000    0.0000 C   0  0  0  0  0  0  0  0  0  0  0  0
    0.0000    0.0000    0.0000 C   0  0  0  0  0  0  0  0  0  0  0  0
    0.0000    0.0000    0.0000 C   0  0  0  0  0  0  0  0  0  0  0  0
    0.0000    0.0000    0.0000 C   0  0  0  0  0  0  0  0  0  0  0  0
    0.0000    0.0000    0.0000 C   0  0  0  0  0  0  0  0  0  0  0  0
    0.0000    0.0000    0.0000 C   0  0  0  0  0  0  0  0  0  0  0  0
    0.0000    0.0000    0.0000 C   0  0  0  0  0  0  0  0  0  0  0  0
    0.0000    0.0000    0.0000 O   0  0  0  0  0  0  0  0  0  0  0  0
    0.0000    0.0000    0.0000 C   0  0  0  0  0  0  0  0  0  0  0  0
    0.0000    0.0000    0.0000 C   0  0  0  0  0  0  0  0  0  0  0  0
    0.0000    0.0000    0.0000 C   0  0  0  0  0  0  0  0  0  0  0  0
    0.0000    0.0000    0.0000 O   0  0  0  0  0  0  0  0  0  0  0  0
    0.0000    0.0000    0.0000 C   0  0  0  0  0  0  0  0  0  0  0  0
    0.0000    0.0000    0.0000 C   0  0  0  0  0  0  0  0  0  0  0  0
    0.0000    0.0000    0.0000 O   0  0  0  0  0  0  0  0  0  0  0  0
  1  2  1  0
  2  3  2  0
  2  4  1  0
  4  5  2  0
  5  6  1  0
  6  7  2  0
  7  8  1  0
  8  9  1  0
  9 10  1  0
 10 11  1  0
 11 12  1  0
 12 13  1  0
 13 14  1  0
 14 15  1  0
 10 16  1  0
 16 17  1  0
 17 18  1  0
 18 19  1  0
 19 20  1  0
 20 21  1  0
 20 22  1  0
 22 23  1  0
 23 24  1  0
 24 25  1  0
 18 26  1  0
 26 27  2  0
 27 28  1  0
 27  4  1  0
 26  7  1  0
 24  9  1  0
 15 12  1  0
 24 18  1  0
M  END
>  <pIC50>  (529) 
7.59

>  <ChEMBL_ID>  (529) 
CHEMBL512150

>  <document_journal>  (529) 
Bioorg. Med. Chem. Lett.

>  <bao_endpoint>  (529) 
BAO_0000190

>  <potential_duplicate>  (529) 
False

>  <uo_units>  (529) 
UO_0000065

>  <canonical_smiles>  (529) 
NC(=O)c1ccc2C[C@H]3N(CC4CCC4)CC[C@@]5(C[C@@H](O)CC[C@@]35O)c2c1O

>  <parent_molecule_chembl_id>  (529) 
CHEMBL512150

>  <assay_type>  (529) 
F

>  <src_id>  (529) 
1

>  <ligand_efficiency>  (529) 
None

>  <standard_flag>  (529) 
True

>  <molecule_chembl_id>  (529) 
CHEMBL512150

>  <target_organism>  (529) 
Homo sapiens

>  <standard_units>  (529) 
nM

>  <record_id>  (529) 
809973

>  <document_chembl_id>  (529) 
CHEMBL1153960

>  <bao_format>  (529) 
BAO_0000219

>  <data_validity_description>  (529) 
None

>  <activity_id>  (529) 
2417691

>  <standard_type>  (529) 
IC50

>  <target_chembl_id>  (529) 
CHEMBL233

>  <data_validity_comment>  (529) 
None

>  <published_value>  (529) 
26

>  <document_year>  (529) 
2009

>  <target_pref_name>  (529) 
Mu opioid receptor

>  <assay_chembl_id>  (529) 
CHEMBL958397

>  <standard_relation>  (529) 
=

>  <assay_description>  (529) 
Antagonist activity against human mu opioid receptor expressed in CHO cells assessed as inhibition of DAMGO-stimulated [35S]GTPgammaS binding

>  <published_relation>  (529) 
=

>  <standard_value>  (529) 
26

>  <qudt_units>  (529) 
http://www.openphacts.org/units/Nanomolar

>  <target_tax_id>  (529) 
9606

>  <bao_label>  (529) 
cell-based format

>  <published_units>  (529) 
nM

>  <pchembl_value>  (529) 
7.59

>  <published_type>  (529) 
IC50

>  <activity_comment>  (529) 
None

$$$$

     RDKit          

 27 32  0  0  0  0  0  0  0  0999 V2000
    0.0000    0.0000    0.0000 N   0  0  0  0  0  0  0  0  0  0  0  0
    0.0000    0.0000    0.0000 C   0  0  0  0  0  0  0  0  0  0  0  0
    0.0000    0.0000    0.0000 O   0  0  0  0  0  0  0  0  0  0  0  0
    0.0000    0.0000    0.0000 C   0  0  0  0  0  0  0  0  0  0  0  0
    0.0000    0.0000    0.0000 C   0  0  0  0  0  0  0  0  0  0  0  0
    0.0000    0.0000    0.0000 C   0  0  0  0  0  0  0  0  0  0  0  0
    0.0000    0.0000    0.0000 C   0  0  0  0  0  0  0  0  0  0  0  0
    0.0000    0.0000    0.0000 C   0  0  0  0  0  0  0  0  0  0  0  0
    0.0000    0.0000    0.0000 C   0  0  0  0  0  0  0  0  0  0  0  0
    0.0000    0.0000    0.0000 N   0  0  0  0  0  0  0  0  0  0  0  0
    0.0000    0.0000    0.0000 C   0  0  0  0  0  0  0  0  0  0  0  0
    0.0000    0.0000    0.0000 C   0  0  0  0  0  0  0  0  0  0  0  0
    0.0000    0.0000    0.0000 C   0  0  0  0  0  0  0  0  0  0  0  0
    0.0000    0.0000    0.0000 C   0  0  0  0  0  0  0  0  0  0  0  0
    0.0000    0.0000    0.0000 C   0  0  0  0  0  0  0  0  0  0  0  0
    0.0000    0.0000    0.0000 C   0  0  0  0  0  0  0  0  0  0  0  0
    0.0000    0.0000    0.0000 C   0  0  0  0  0  0  0  0  0  0  0  0
    0.0000    0.0000    0.0000 C   0  0  0  0  0  0  0  0  0  0  0  0
    0.0000    0.0000    0.0000 O   0  0  0  0  0  0  0  0  0  0  0  0
    0.0000    0.0000    0.0000 C   0  0  0  0  0  0  0  0  0  0  0  0
    0.0000    0.0000    0.0000 C   0  0  0  0  0  0  0  0  0  0  0  0
    0.0000    0.0000    0.0000 C   0  0  0  0  0  0  0  0  0  0  0  0
    0.0000    0.0000    0.0000 O   0  0  0  0  0  0  0  0  0  0  0  0
    0.0000    0.0000    0.0000 C   0  0  0  0  0  0  0  0  0  0  0  0
    0.0000    0.0000    0.0000 C   0  0  0  0  0  0  0  0  0  0  0  0
    0.0000    0.0000    0.0000 C   0  0  0  0  0  0  0  0  0  0  0  0
    0.0000    0.0000    0.0000 O   0  0  0  0  0  0  0  0  0  0  0  0
  1  2  1  0
  2  3  2  0
  2  4  1  0
  4  5  2  0
  5  6  1  0
  6  7  2  0
  7  8  1  0
  8  9  1  0
  9 10  1  0
 10 11  1  0
 11 12  1  0
 12 13  1  0
 13 14  1  0
 10 15  1  0
 15 16  1  0
 16 17  1  0
 17 18  1  0
 18 19  1  0
 19 20  1  0
 20 21  2  0
 18 22  1  0
 22 23  2  0
 22 24  1  0
 24 25  1  0
 25 26  1  0
 26 27  1  0
 20  4  1  0
 21  7  1  0
 26  9  1  0
 14 12  1  0
 21 17  1  0
 26 17  1  0
M  END
>  <pIC50>  (530) 
6.57

>  <ChEMBL_ID>  (530) 
CHEMBL56695

>  <document_journal>  (530) 
Bioorg. Med. Chem. Lett.

>  <bao_endpoint>  (530) 
BAO_0000190

>  <potential_duplicate>  (530) 
False

>  <uo_units>  (530) 
UO_0000065

>  <canonical_smiles>  (530) 
NC(=O)c1ccc2C[C@H]3N(CC4CC4)CC[C@@]56[C@@H](Oc1c25)C(=O)CC[C@@]36O

>  <parent_molecule_chembl_id>  (530) 
CHEMBL56695

>  <assay_type>  (530) 
F

>  <src_id>  (530) 
1

>  <ligand_efficiency>  (530) 
None

>  <standard_flag>  (530) 
True

>  <molecule_chembl_id>  (530) 
CHEMBL56695

>  <target_organism>  (530) 
Homo sapiens

>  <standard_units>  (530) 
nM

>  <record_id>  (530) 
809877

>  <document_chembl_id>  (530) 
CHEMBL1153960

>  <bao_format>  (530) 
BAO_0000219

>  <data_validity_description>  (530) 
None

>  <activity_id>  (530) 
2417693

>  <standard_type>  (530) 
IC50

>  <target_chembl_id>  (530) 
CHEMBL233

>  <data_validity_comment>  (530) 
None

>  <published_value>  (530) 
270

>  <document_year>  (530) 
2009

>  <target_pref_name>  (530) 
Mu opioid receptor

>  <assay_chembl_id>  (530) 
CHEMBL958397

>  <standard_relation>  (530) 
=

>  <assay_description>  (530) 
Antagonist activity against human mu opioid receptor expressed in CHO cells assessed as inhibition of DAMGO-stimulated [35S]GTPgammaS binding

>  <published_relation>  (530) 
=

>  <standard_value>  (530) 
270

>  <qudt_units>  (530) 
http://www.openphacts.org/units/Nanomolar

>  <target_tax_id>  (530) 
9606

>  <bao_label>  (530) 
cell-based format

>  <published_units>  (530) 
nM

>  <pchembl_value>  (530) 
6.57

>  <published_type>  (530) 
IC50

>  <activity_comment>  (530) 
None

$$$$

     RDKit          

 27 31  0  0  0  0  0  0  0  0999 V2000
    0.0000    0.0000    0.0000 N   0  0  0  0  0  0  0  0  0  0  0  0
    0.0000    0.0000    0.0000 C   0  0  0  0  0  0  0  0  0  0  0  0
    0.0000    0.0000    0.0000 O   0  0  0  0  0  0  0  0  0  0  0  0
    0.0000    0.0000    0.0000 C   0  0  0  0  0  0  0  0  0  0  0  0
    0.0000    0.0000    0.0000 C   0  0  0  0  0  0  0  0  0  0  0  0
    0.0000    0.0000    0.0000 C   0  0  0  0  0  0  0  0  0  0  0  0
    0.0000    0.0000    0.0000 C   0  0  0  0  0  0  0  0  0  0  0  0
    0.0000    0.0000    0.0000 C   0  0  0  0  0  0  0  0  0  0  0  0
    0.0000    0.0000    0.0000 C   0  0  0  0  0  0  0  0  0  0  0  0
    0.0000    0.0000    0.0000 N   0  0  0  0  0  0  0  0  0  0  0  0
    0.0000    0.0000    0.0000 C   0  0  0  0  0  0  0  0  0  0  0  0
    0.0000    0.0000    0.0000 C   0  0  0  0  0  0  0  0  0  0  0  0
    0.0000    0.0000    0.0000 C   0  0  0  0  0  0  0  0  0  0  0  0
    0.0000    0.0000    0.0000 C   0  0  0  0  0  0  0  0  0  0  0  0
    0.0000    0.0000    0.0000 C   0  0  0  0  0  0  0  0  0  0  0  0
    0.0000    0.0000    0.0000 C   0  0  0  0  0  0  0  0  0  0  0  0
    0.0000    0.0000    0.0000 C   0  0  0  0  0  0  0  0  0  0  0  0
    0.0000    0.0000    0.0000 C   0  0  0  0  0  0  0  0  0  0  0  0
    0.0000    0.0000    0.0000 C   0  0  0  0  0  0  0  0  0  0  0  0
    0.0000    0.0000    0.0000 O   0  0  0  0  0  0  0  0  0  0  0  0
    0.0000    0.0000    0.0000 C   0  0  0  0  0  0  0  0  0  0  0  0
    0.0000    0.0000    0.0000 C   0  0  0  0  0  0  0  0  0  0  0  0
    0.0000    0.0000    0.0000 C   0  0  0  0  0  0  0  0  0  0  0  0
    0.0000    0.0000    0.0000 O   0  0  0  0  0  0  0  0  0  0  0  0
    0.0000    0.0000    0.0000 C   0  0  0  0  0  0  0  0  0  0  0  0
    0.0000    0.0000    0.0000 C   0  0  0  0  0  0  0  0  0  0  0  0
    0.0000    0.0000    0.0000 O   0  0  0  0  0  0  0  0  0  0  0  0
  1  2  1  0
  2  3  2  0
  2  4  1  0
  4  5  2  0
  5  6  1  0
  6  7  2  0
  7  8  1  0
  8  9  1  0
  9 10  1  0
 10 11  1  0
 11 12  1  0
 12 13  1  0
 13 14  1  0
 10 15  1  0
 15 16  1  0
 16 17  1  0
 17 18  1  0
 18 19  1  0
 19 20  2  0
 19 21  1  0
 21 22  1  0
 22 23  1  0
 23 24  1  0
 17 25  1  0
 25 26  2  0
 26 27  1  0
 26  4  1  0
 25  7  1  0
 23  9  1  0
 14 12  1  0
 23 17  1  0
M  END
>  <pIC50>  (531) 
9.06

>  <ChEMBL_ID>  (531) 
CHEMBL471243

>  <document_journal>  (531) 
Bioorg. Med. Chem. Lett.

>  <bao_endpoint>  (531) 
BAO_0000190

>  <potential_duplicate>  (531) 
False

>  <uo_units>  (531) 
UO_0000065

>  <canonical_smiles>  (531) 
Cl.NC(=O)c1ccc2C[C@H]3N(CC4CC4)CC[C@@]5(CC(=O)CC[C@@]35O)c2c1O

>  <parent_molecule_chembl_id>  (531) 
CHEMBL426084

>  <assay_type>  (531) 
F

>  <src_id>  (531) 
1

>  <ligand_efficiency>  (531) 
None

>  <standard_flag>  (531) 
True

>  <molecule_chembl_id>  (531) 
CHEMBL471243

>  <target_organism>  (531) 
Homo sapiens

>  <standard_units>  (531) 
nM

>  <record_id>  (531) 
809876

>  <document_chembl_id>  (531) 
CHEMBL1153960

>  <bao_format>  (531) 
BAO_0000219

>  <data_validity_description>  (531) 
None

>  <activity_id>  (531) 
2417695

>  <standard_type>  (531) 
IC50

>  <target_chembl_id>  (531) 
CHEMBL233

>  <data_validity_comment>  (531) 
None

>  <published_value>  (531) 
0.88

>  <document_year>  (531) 
2009

>  <target_pref_name>  (531) 
Mu opioid receptor

>  <assay_chembl_id>  (531) 
CHEMBL958397

>  <standard_relation>  (531) 
=

>  <assay_description>  (531) 
Antagonist activity against human mu opioid receptor expressed in CHO cells assessed as inhibition of DAMGO-stimulated [35S]GTPgammaS binding

>  <published_relation>  (531) 
=

>  <standard_value>  (531) 
0.88

>  <qudt_units>  (531) 
http://www.openphacts.org/units/Nanomolar

>  <target_tax_id>  (531) 
9606

>  <bao_label>  (531) 
cell-based format

>  <published_units>  (531) 
nM

>  <pchembl_value>  (531) 
9.06

>  <published_type>  (531) 
IC50

>  <activity_comment>  (531) 
None

$$$$

     RDKit          

 28 32  0  0  0  0  0  0  0  0999 V2000
    0.0000    0.0000    0.0000 C   0  0  0  0  0  0  0  0  0  0  0  0
    0.0000    0.0000    0.0000 C   0  0  0  0  0  0  0  0  0  0  0  0
    0.0000    0.0000    0.0000 C   0  0  0  0  0  0  0  0  0  0  0  0
    0.0000    0.0000    0.0000 C   0  0  0  0  0  0  0  0  0  0  0  0
    0.0000    0.0000    0.0000 C   0  0  0  0  0  0  0  0  0  0  0  0
    0.0000    0.0000    0.0000 N   0  0  0  0  0  0  0  0  0  0  0  0
    0.0000    0.0000    0.0000 C   0  0  0  0  0  0  0  0  0  0  0  0
    0.0000    0.0000    0.0000 N   0  0  0  0  0  0  0  0  0  0  0  0
    0.0000    0.0000    0.0000 C   0  0  0  0  0  0  0  0  0  0  0  0
    0.0000    0.0000    0.0000 C   0  0  0  0  0  0  0  0  0  0  0  0
    0.0000    0.0000    0.0000 C   0  0  0  0  0  0  0  0  0  0  0  0
    0.0000    0.0000    0.0000 N   0  0  0  0  0  0  0  0  0  0  0  0
    0.0000    0.0000    0.0000 C   0  0  0  0  0  0  0  0  0  0  0  0
    0.0000    0.0000    0.0000 C   0  0  0  0  0  0  0  0  0  0  0  0
    0.0000    0.0000    0.0000 C   0  0  0  0  0  0  0  0  0  0  0  0
    0.0000    0.0000    0.0000 C   0  0  0  0  0  0  0  0  0  0  0  0
    0.0000    0.0000    0.0000 C   0  0  0  0  0  0  0  0  0  0  0  0
    0.0000    0.0000    0.0000 O   0  0  0  0  0  0  0  0  0  0  0  0
    0.0000    0.0000    0.0000 C   0  0  0  0  0  0  0  0  0  0  0  0
    0.0000    0.0000    0.0000 C   0  0  0  0  0  0  0  0  0  0  0  0
    0.0000    0.0000    0.0000 C   0  0  0  0  0  0  0  0  0  0  0  0
    0.0000    0.0000    0.0000 C   0  0  0  0  0  0  0  0  0  0  0  0
    0.0000    0.0000    0.0000 C   0  0  0  0  0  0  0  0  0  0  0  0
    0.0000    0.0000    0.0000 C   0  0  0  0  0  0  0  0  0  0  0  0
    0.0000    0.0000    0.0000 C   0  0  0  0  0  0  0  0  0  0  0  0
    0.0000    0.0000    0.0000 C   0  0  0  0  0  0  0  0  0  0  0  0
    0.0000    0.0000    0.0000 C   0  0  0  0  0  0  0  0  0  0  0  0
    0.0000    0.0000    0.0000 N   0  0  0  0  0  0  0  0  0  0  0  0
  1  2  1  0
  2  3  2  0
  3  4  1  0
  4  5  2  0
  5  6  1  0
  6  7  2  0
  7  8  1  0
  8  9  1  0
  9 10  2  0
 10 11  1  0
 11 12  1  0
 12 13  1  0
 13 14  1  0
 14 15  1  0
 15 16  1  0
 16 17  1  0
 15 18  1  0
 18 19  1  0
 19 20  1  0
 20 21  2  0
 21 22  1  0
 22 23  2  0
 23 24  1  0
 24 25  2  0
 10 26  1  0
 26 27  1  0
 26 28  2  0
  7  2  1  0
 28  8  1  0
 17 12  1  0
 25 15  1  0
 25 20  1  0
M  END
>  <pIC50>  (532) 
5.36

>  <ChEMBL_ID>  (532) 
CHEMBL470951

>  <document_journal>  (532) 
Bioorg. Med. Chem. Lett.

>  <bao_endpoint>  (532) 
BAO_0000190

>  <potential_duplicate>  (532) 
False

>  <uo_units>  (532) 
UO_0000065

>  <canonical_smiles>  (532) 
Cc1cccnc1n2cc(CN3CCC4(CC3)OCc5ccccc45)c(C)n2

>  <parent_molecule_chembl_id>  (532) 
CHEMBL470951

>  <assay_type>  (532) 
B

>  <src_id>  (532) 
1

>  <ligand_efficiency>  (532) 
{u'le': u'0.26', u'bei': u'14.3', u'sei': u'12.41', u'lle': u'2.04'}

>  <standard_flag>  (532) 
True

>  <molecule_chembl_id>  (532) 
CHEMBL470951

>  <target_organism>  (532) 
Homo sapiens

>  <standard_units>  (532) 
nM

>  <record_id>  (532) 
721338

>  <document_chembl_id>  (532) 
CHEMBL1157430

>  <bao_format>  (532) 
BAO_0000219

>  <data_validity_description>  (532) 
None

>  <activity_id>  (532) 
2444550

>  <standard_type>  (532) 
IC50

>  <target_chembl_id>  (532) 
CHEMBL233

>  <data_validity_comment>  (532) 
None

>  <published_value>  (532) 
4400

>  <document_year>  (532) 
2008

>  <target_pref_name>  (532) 
Mu opioid receptor

>  <assay_chembl_id>  (532) 
CHEMBL953931

>  <standard_relation>  (532) 
=

>  <assay_description>  (532) 
Displacement of [3H]diprenorphin from human cloned mu opioid receptor expressed in CHO cells

>  <published_relation>  (532) 
=

>  <standard_value>  (532) 
4400

>  <qudt_units>  (532) 
http://www.openphacts.org/units/Nanomolar

>  <target_tax_id>  (532) 
9606

>  <bao_label>  (532) 
cell-based format

>  <published_units>  (532) 
nM

>  <pchembl_value>  (532) 
5.36

>  <published_type>  (532) 
IC50

>  <activity_comment>  (532) 
None

$$$$

     RDKit          

 28 32  0  0  0  0  0  0  0  0999 V2000
    0.0000    0.0000    0.0000 C   0  0  0  0  0  0  0  0  0  0  0  0
    0.0000    0.0000    0.0000 C   0  0  0  0  0  0  0  0  0  0  0  0
    0.0000    0.0000    0.0000 N   0  0  0  0  0  0  0  0  0  0  0  0
    0.0000    0.0000    0.0000 N   0  0  0  0  0  0  0  0  0  0  0  0
    0.0000    0.0000    0.0000 C   0  0  0  0  0  0  0  0  0  0  0  0
    0.0000    0.0000    0.0000 C   0  0  0  0  0  0  0  0  0  0  0  0
    0.0000    0.0000    0.0000 C   0  0  0  0  0  0  0  0  0  0  0  0
    0.0000    0.0000    0.0000 N   0  0  0  0  0  0  0  0  0  0  0  0
    0.0000    0.0000    0.0000 C   0  0  0  0  0  0  0  0  0  0  0  0
    0.0000    0.0000    0.0000 C   0  0  0  0  0  0  0  0  0  0  0  0
    0.0000    0.0000    0.0000 C   0  0  0  0  0  0  0  0  0  0  0  0
    0.0000    0.0000    0.0000 C   0  0  0  0  0  0  0  0  0  0  0  0
    0.0000    0.0000    0.0000 C   0  0  0  0  0  0  0  0  0  0  0  0
    0.0000    0.0000    0.0000 O   0  0  0  0  0  0  0  0  0  0  0  0
    0.0000    0.0000    0.0000 C   0  0  0  0  0  0  0  0  0  0  0  0
    0.0000    0.0000    0.0000 C   0  0  0  0  0  0  0  0  0  0  0  0
    0.0000    0.0000    0.0000 C   0  0  0  0  0  0  0  0  0  0  0  0
    0.0000    0.0000    0.0000 C   0  0  0  0  0  0  0  0  0  0  0  0
    0.0000    0.0000    0.0000 C   0  0  0  0  0  0  0  0  0  0  0  0
    0.0000    0.0000    0.0000 C   0  0  0  0  0  0  0  0  0  0  0  0
    0.0000    0.0000    0.0000 C   0  0  0  0  0  0  0  0  0  0  0  0
    0.0000    0.0000    0.0000 C   0  0  0  0  0  0  0  0  0  0  0  0
    0.0000    0.0000    0.0000 N   0  0  0  0  0  0  0  0  0  0  0  0
    0.0000    0.0000    0.0000 C   0  0  0  0  0  0  0  0  0  0  0  0
    0.0000    0.0000    0.0000 C   0  0  0  0  0  0  0  0  0  0  0  0
    0.0000    0.0000    0.0000 C   0  0  0  0  0  0  0  0  0  0  0  0
    0.0000    0.0000    0.0000 C   0  0  0  0  0  0  0  0  0  0  0  0
    0.0000    0.0000    0.0000 Cl  0  0  0  0  0  0  0  0  0  0  0  0
  1  2  1  0
  2  3  2  0
  3  4  1  0
  4  5  1  0
  5  6  2  0
  6  7  1  0
  7  8  1  0
  8  9  1  0
  9 10  1  0
 10 11  1  0
 11 12  1  0
 12 13  1  0
 11 14  1  0
 14 15  1  0
 15 16  1  0
 16 17  2  0
 17 18  1  0
 18 19  2  0
 19 20  1  0
 20 21  2  0
  4 22  1  0
 22 23  2  0
 23 24  1  0
 24 25  2  0
 25 26  1  0
 26 27  2  0
 27 28  1  0
  6  2  1  0
 13  8  1  0
 21 11  1  0
 21 16  1  0
 27 22  1  0
M  END
>  <pIC50>  (533) 
5.13

>  <ChEMBL_ID>  (533) 
CHEMBL512520

>  <document_journal>  (533) 
Bioorg. Med. Chem. Lett.

>  <bao_endpoint>  (533) 
BAO_0000190

>  <potential_duplicate>  (533) 
False

>  <uo_units>  (533) 
UO_0000065

>  <canonical_smiles>  (533) 
Cc1nn(cc1CN2CCC3(CC2)OCc4ccccc34)c5ncccc5Cl

>  <parent_molecule_chembl_id>  (533) 
CHEMBL512520

>  <assay_type>  (533) 
B

>  <src_id>  (533) 
1

>  <ligand_efficiency>  (533) 
{u'le': u'0.25', u'bei': u'12.99', u'sei': u'11.88', u'lle': u'1.63'}

>  <standard_flag>  (533) 
True

>  <molecule_chembl_id>  (533) 
CHEMBL512520

>  <target_organism>  (533) 
Homo sapiens

>  <standard_units>  (533) 
nM

>  <record_id>  (533) 
721264

>  <document_chembl_id>  (533) 
CHEMBL1157430

>  <bao_format>  (533) 
BAO_0000219

>  <data_validity_description>  (533) 
None

>  <activity_id>  (533) 
2444551

>  <standard_type>  (533) 
IC50

>  <target_chembl_id>  (533) 
CHEMBL233

>  <data_validity_comment>  (533) 
None

>  <published_value>  (533) 
7400

>  <document_year>  (533) 
2008

>  <target_pref_name>  (533) 
Mu opioid receptor

>  <assay_chembl_id>  (533) 
CHEMBL953931

>  <standard_relation>  (533) 
=

>  <assay_description>  (533) 
Displacement of [3H]diprenorphin from human cloned mu opioid receptor expressed in CHO cells

>  <published_relation>  (533) 
=

>  <standard_value>  (533) 
7400

>  <qudt_units>  (533) 
http://www.openphacts.org/units/Nanomolar

>  <target_tax_id>  (533) 
9606

>  <bao_label>  (533) 
cell-based format

>  <published_units>  (533) 
nM

>  <pchembl_value>  (533) 
5.13

>  <published_type>  (533) 
IC50

>  <activity_comment>  (533) 
None

$$$$

     RDKit          

 27 31  0  0  0  0  0  0  0  0999 V2000
    0.0000    0.0000    0.0000 C   0  0  0  0  0  0  0  0  0  0  0  0
    0.0000    0.0000    0.0000 C   0  0  0  0  0  0  0  0  0  0  0  0
    0.0000    0.0000    0.0000 N   0  0  0  0  0  0  0  0  0  0  0  0
    0.0000    0.0000    0.0000 N   0  0  0  0  0  0  0  0  0  0  0  0
    0.0000    0.0000    0.0000 C   0  0  0  0  0  0  0  0  0  0  0  0
    0.0000    0.0000    0.0000 C   0  0  0  0  0  0  0  0  0  0  0  0
    0.0000    0.0000    0.0000 C   0  0  0  0  0  0  0  0  0  0  0  0
    0.0000    0.0000    0.0000 N   0  0  0  0  0  0  0  0  0  0  0  0
    0.0000    0.0000    0.0000 C   0  0  0  0  0  0  0  0  0  0  0  0
    0.0000    0.0000    0.0000 C   0  0  0  0  0  0  0  0  0  0  0  0
    0.0000    0.0000    0.0000 C   0  0  0  0  0  0  0  0  0  0  0  0
    0.0000    0.0000    0.0000 C   0  0  0  0  0  0  0  0  0  0  0  0
    0.0000    0.0000    0.0000 C   0  0  0  0  0  0  0  0  0  0  0  0
    0.0000    0.0000    0.0000 O   0  0  0  0  0  0  0  0  0  0  0  0
    0.0000    0.0000    0.0000 C   0  0  0  0  0  0  0  0  0  0  0  0
    0.0000    0.0000    0.0000 C   0  0  0  0  0  0  0  0  0  0  0  0
    0.0000    0.0000    0.0000 C   0  0  0  0  0  0  0  0  0  0  0  0
    0.0000    0.0000    0.0000 C   0  0  0  0  0  0  0  0  0  0  0  0
    0.0000    0.0000    0.0000 C   0  0  0  0  0  0  0  0  0  0  0  0
    0.0000    0.0000    0.0000 C   0  0  0  0  0  0  0  0  0  0  0  0
    0.0000    0.0000    0.0000 C   0  0  0  0  0  0  0  0  0  0  0  0
    0.0000    0.0000    0.0000 C   0  0  0  0  0  0  0  0  0  0  0  0
    0.0000    0.0000    0.0000 C   0  0  0  0  0  0  0  0  0  0  0  0
    0.0000    0.0000    0.0000 C   0  0  0  0  0  0  0  0  0  0  0  0
    0.0000    0.0000    0.0000 C   0  0  0  0  0  0  0  0  0  0  0  0
    0.0000    0.0000    0.0000 C   0  0  0  0  0  0  0  0  0  0  0  0
    0.0000    0.0000    0.0000 C   0  0  0  0  0  0  0  0  0  0  0  0
  1  2  1  0
  2  3  2  0
  3  4  1  0
  4  5  1  0
  5  6  2  0
  6  7  1  0
  7  8  1  0
  8  9  1  0
  9 10  1  0
 10 11  1  0
 11 12  1  0
 12 13  1  0
 11 14  1  0
 14 15  1  0
 15 16  1  0
 16 17  2  0
 17 18  1  0
 18 19  2  0
 19 20  1  0
 20 21  2  0
  4 22  1  0
 22 23  2  0
 23 24  1  0
 24 25  2  0
 25 26  1  0
 26 27  2  0
  6  2  1  0
 13  8  1  0
 21 11  1  0
 21 16  1  0
 27 22  1  0
M  END
>  <pIC50>  (534) 
5.5

>  <ChEMBL_ID>  (534) 
CHEMBL460893

>  <document_journal>  (534) 
Bioorg. Med. Chem. Lett.

>  <bao_endpoint>  (534) 
BAO_0000190

>  <potential_duplicate>  (534) 
False

>  <uo_units>  (534) 
UO_0000065

>  <canonical_smiles>  (534) 
Cc1nn(cc1CN2CCC3(CC2)OCc4ccccc34)c5ccccc5

>  <parent_molecule_chembl_id>  (534) 
CHEMBL460893

>  <assay_type>  (534) 
B

>  <src_id>  (534) 
1

>  <ligand_efficiency>  (534) 
{u'le': u'0.28', u'bei': u'15.29', u'sei': u'18.14', u'lle': u'2.04'}

>  <standard_flag>  (534) 
True

>  <molecule_chembl_id>  (534) 
CHEMBL460893

>  <target_organism>  (534) 
Homo sapiens

>  <standard_units>  (534) 
nM

>  <record_id>  (534) 
721080

>  <document_chembl_id>  (534) 
CHEMBL1157430

>  <bao_format>  (534) 
BAO_0000219

>  <data_validity_description>  (534) 
None

>  <activity_id>  (534) 
2444552

>  <standard_type>  (534) 
IC50

>  <target_chembl_id>  (534) 
CHEMBL233

>  <data_validity_comment>  (534) 
None

>  <published_value>  (534) 
3200

>  <document_year>  (534) 
2008

>  <target_pref_name>  (534) 
Mu opioid receptor

>  <assay_chembl_id>  (534) 
CHEMBL953931

>  <standard_relation>  (534) 
=

>  <assay_description>  (534) 
Displacement of [3H]diprenorphin from human cloned mu opioid receptor expressed in CHO cells

>  <published_relation>  (534) 
=

>  <standard_value>  (534) 
3200

>  <qudt_units>  (534) 
http://www.openphacts.org/units/Nanomolar

>  <target_tax_id>  (534) 
9606

>  <bao_label>  (534) 
cell-based format

>  <published_units>  (534) 
nM

>  <pchembl_value>  (534) 
5.5

>  <published_type>  (534) 
IC50

>  <activity_comment>  (534) 
None

$$$$

     RDKit          

 22 26  0  0  0  0  0  0  0  0999 V2000
    0.0000    0.0000    0.0000 C   0  0  0  0  0  0  0  0  0  0  0  0
    0.0000    0.0000    0.0000 C   0  0  0  0  0  0  0  0  0  0  0  0
    0.0000    0.0000    0.0000 C   0  0  0  0  0  0  0  0  0  0  0  0
    0.0000    0.0000    0.0000 C   0  0  0  0  0  0  0  0  0  0  0  0
    0.0000    0.0000    0.0000 C   0  0  0  0  0  0  0  0  0  0  0  0
    0.0000    0.0000    0.0000 C   0  0  0  0  0  0  0  0  0  0  0  0
    0.0000    0.0000    0.0000 C   0  0  0  0  0  0  0  0  0  0  0  0
    0.0000    0.0000    0.0000 C   0  0  0  0  0  0  0  0  0  0  0  0
    0.0000    0.0000    0.0000 N   0  0  0  0  0  0  0  0  0  0  0  0
    0.0000    0.0000    0.0000 N   0  0  0  0  0  0  0  0  0  0  0  0
    0.0000    0.0000    0.0000 N   0  0  0  0  0  0  0  0  0  0  0  0
    0.0000    0.0000    0.0000 C   0  0  0  0  0  0  0  0  0  0  0  0
    0.0000    0.0000    0.0000 C   0  0  0  0  0  0  0  0  0  0  0  0
    0.0000    0.0000    0.0000 C   0  0  0  0  0  0  0  0  0  0  0  0
    0.0000    0.0000    0.0000 C   0  0  0  0  0  0  0  0  0  0  0  0
    0.0000    0.0000    0.0000 C   0  0  0  0  0  0  0  0  0  0  0  0
    0.0000    0.0000    0.0000 C   0  0  0  0  0  0  0  0  0  0  0  0
    0.0000    0.0000    0.0000 N   0  0  0  0  0  0  0  0  0  0  0  0
    0.0000    0.0000    0.0000 C   0  0  0  0  0  0  0  0  0  0  0  0
    0.0000    0.0000    0.0000 C   0  0  0  0  0  0  0  0  0  0  0  0
    0.0000    0.0000    0.0000 C   0  0  0  0  0  0  0  0  0  0  0  0
    0.0000    0.0000    0.0000 C   0  0  0  0  0  0  0  0  0  0  0  0
  1  2  1  0
  2  3  1  0
  3  4  1  0
  4  5  1  0
  5  6  2  0
  6  7  1  0
  7  8  2  0
  8  9  1  0
  9 10  1  0
 10 11  2  0
 11 12  1  0
 12 13  2  0
 13 14  1  0
 14 15  1  0
 14 16  1  0
 16 17  1  0
 17 18  1  0
 18 19  1  0
 19 20  1  0
 20 21  1  0
 21 22  1  0
 14  2  1  0
 18  3  1  0
 13  5  1  0
 12  8  1  0
 22 20  1  0
M  END
>  <pIC50>  (535) 
7.0

>  <ChEMBL_ID>  (535) 
CHEMBL475108

>  <document_journal>  (535) 
Bioorg. Med. Chem. Lett.

>  <bao_endpoint>  (535) 
BAO_0000190

>  <potential_duplicate>  (535) 
False

>  <uo_units>  (535) 
UO_0000065

>  <canonical_smiles>  (535) 
C[C@H]1C2Cc3ccc4[nH]nnc4c3[C@@]1(C)CCN2CC5CC5

>  <parent_molecule_chembl_id>  (535) 
CHEMBL475108

>  <assay_type>  (535) 
F

>  <src_id>  (535) 
1

>  <ligand_efficiency>  (535) 
None

>  <standard_flag>  (535) 
True

>  <molecule_chembl_id>  (535) 
CHEMBL475108

>  <target_organism>  (535) 
Homo sapiens

>  <standard_units>  (535) 
nM

>  <record_id>  (535) 
807280

>  <document_chembl_id>  (535) 
CHEMBL1136834

>  <bao_format>  (535) 
BAO_0000219

>  <data_validity_description>  (535) 
None

>  <activity_id>  (535) 
2601098

>  <standard_type>  (535) 
IC50

>  <target_chembl_id>  (535) 
CHEMBL233

>  <data_validity_comment>  (535) 
None

>  <published_value>  (535) 
99

>  <document_year>  (535) 
2009

>  <target_pref_name>  (535) 
Mu opioid receptor

>  <assay_chembl_id>  (535) 
CHEMBL1030612

>  <standard_relation>  (535) 
=

>  <assay_description>  (535) 
Antagonist activity at human mu opioid receptor expressed in CHO cells assessed as inhibition of DAMGO-induced [35S]GTPgammaS binding

>  <published_relation>  (535) 
=

>  <standard_value>  (535) 
99

>  <qudt_units>  (535) 
http://www.openphacts.org/units/Nanomolar

>  <target_tax_id>  (535) 
9606

>  <bao_label>  (535) 
cell-based format

>  <published_units>  (535) 
nM

>  <pchembl_value>  (535) 
7

>  <published_type>  (535) 
IC50

>  <activity_comment>  (535) 
None

$$$$

     RDKit          

 23 27  0  0  0  0  0  0  0  0999 V2000
    0.0000    0.0000    0.0000 C   0  0  0  0  0  0  0  0  0  0  0  0
    0.0000    0.0000    0.0000 C   0  0  0  0  0  0  0  0  0  0  0  0
    0.0000    0.0000    0.0000 C   0  0  0  0  0  0  0  0  0  0  0  0
    0.0000    0.0000    0.0000 C   0  0  0  0  0  0  0  0  0  0  0  0
    0.0000    0.0000    0.0000 C   0  0  0  0  0  0  0  0  0  0  0  0
    0.0000    0.0000    0.0000 C   0  0  0  0  0  0  0  0  0  0  0  0
    0.0000    0.0000    0.0000 C   0  0  0  0  0  0  0  0  0  0  0  0
    0.0000    0.0000    0.0000 N   0  0  0  0  0  0  0  0  0  0  0  0
    0.0000    0.0000    0.0000 C   0  0  0  0  0  0  0  0  0  0  0  0
    0.0000    0.0000    0.0000 C   0  0  0  0  0  0  0  0  0  0  0  0
    0.0000    0.0000    0.0000 N   0  0  0  0  0  0  0  0  0  0  0  0
    0.0000    0.0000    0.0000 C   0  0  0  0  0  0  0  0  0  0  0  0
    0.0000    0.0000    0.0000 C   0  0  0  0  0  0  0  0  0  0  0  0
    0.0000    0.0000    0.0000 C   0  0  0  0  0  0  0  0  0  0  0  0
    0.0000    0.0000    0.0000 C   0  0  0  0  0  0  0  0  0  0  0  0
    0.0000    0.0000    0.0000 C   0  0  0  0  0  0  0  0  0  0  0  0
    0.0000    0.0000    0.0000 C   0  0  0  0  0  0  0  0  0  0  0  0
    0.0000    0.0000    0.0000 C   0  0  0  0  0  0  0  0  0  0  0  0
    0.0000    0.0000    0.0000 N   0  0  0  0  0  0  0  0  0  0  0  0
    0.0000    0.0000    0.0000 C   0  0  0  0  0  0  0  0  0  0  0  0
    0.0000    0.0000    0.0000 C   0  0  0  0  0  0  0  0  0  0  0  0
    0.0000    0.0000    0.0000 C   0  0  0  0  0  0  0  0  0  0  0  0
    0.0000    0.0000    0.0000 C   0  0  0  0  0  0  0  0  0  0  0  0
  1  2  1  0
  2  3  1  0
  3  4  1  0
  4  5  1  0
  5  6  1  0
  6  7  2  0
  7  8  1  0
  8  9  2  0
  9 10  1  0
  9 11  1  0
 11 12  1  0
 12 13  2  0
 13 14  1  0
 14 15  1  0
 15 16  1  0
 15 17  1  0
 17 18  1  0
 18 19  1  0
 19 20  1  0
 20 21  1  0
 21 22  1  0
 22 23  1  0
 15  2  1  0
 19  3  1  0
 14  5  2  0
 12  7  1  0
 23 21  1  0
M  END
>  <pIC50>  (536) 
4.96

>  <ChEMBL_ID>  (536) 
CHEMBL473699

>  <document_journal>  (536) 
Bioorg. Med. Chem. Lett.

>  <bao_endpoint>  (536) 
BAO_0000190

>  <potential_duplicate>  (536) 
False

>  <uo_units>  (536) 
UO_0000065

>  <canonical_smiles>  (536) 
C[C@H]1C2Cc3cc4nc(C)[nH]c4cc3[C@@]1(C)CCN2CC5CC5

>  <parent_molecule_chembl_id>  (536) 
CHEMBL473699

>  <assay_type>  (536) 
F

>  <src_id>  (536) 
1

>  <ligand_efficiency>  (536) 
None

>  <standard_flag>  (536) 
True

>  <molecule_chembl_id>  (536) 
CHEMBL473699

>  <target_organism>  (536) 
Homo sapiens

>  <standard_units>  (536) 
nM

>  <record_id>  (536) 
807275

>  <document_chembl_id>  (536) 
CHEMBL1136834

>  <bao_format>  (536) 
BAO_0000219

>  <data_validity_description>  (536) 
None

>  <activity_id>  (536) 
2601099

>  <standard_type>  (536) 
IC50

>  <target_chembl_id>  (536) 
CHEMBL233

>  <data_validity_comment>  (536) 
None

>  <published_value>  (536) 
11000

>  <document_year>  (536) 
2009

>  <target_pref_name>  (536) 
Mu opioid receptor

>  <assay_chembl_id>  (536) 
CHEMBL1030612

>  <standard_relation>  (536) 
=

>  <assay_description>  (536) 
Antagonist activity at human mu opioid receptor expressed in CHO cells assessed as inhibition of DAMGO-induced [35S]GTPgammaS binding

>  <published_relation>  (536) 
=

>  <standard_value>  (536) 
11000

>  <qudt_units>  (536) 
http://www.openphacts.org/units/Nanomolar

>  <target_tax_id>  (536) 
9606

>  <bao_label>  (536) 
cell-based format

>  <published_units>  (536) 
nM

>  <pchembl_value>  (536) 
4.96

>  <published_type>  (536) 
IC50

>  <activity_comment>  (536) 
None

$$$$

     RDKit          

 22 26  0  0  0  0  0  0  0  0999 V2000
    0.0000    0.0000    0.0000 C   0  0  0  0  0  0  0  0  0  0  0  0
    0.0000    0.0000    0.0000 C   0  0  0  0  0  0  0  0  0  0  0  0
    0.0000    0.0000    0.0000 C   0  0  0  0  0  0  0  0  0  0  0  0
    0.0000    0.0000    0.0000 C   0  0  0  0  0  0  0  0  0  0  0  0
    0.0000    0.0000    0.0000 C   0  0  0  0  0  0  0  0  0  0  0  0
    0.0000    0.0000    0.0000 C   0  0  0  0  0  0  0  0  0  0  0  0
    0.0000    0.0000    0.0000 C   0  0  0  0  0  0  0  0  0  0  0  0
    0.0000    0.0000    0.0000 N   0  0  0  0  0  0  0  0  0  0  0  0
    0.0000    0.0000    0.0000 C   0  0  0  0  0  0  0  0  0  0  0  0
    0.0000    0.0000    0.0000 N   0  0  0  0  0  0  0  0  0  0  0  0
    0.0000    0.0000    0.0000 C   0  0  0  0  0  0  0  0  0  0  0  0
    0.0000    0.0000    0.0000 C   0  0  0  0  0  0  0  0  0  0  0  0
    0.0000    0.0000    0.0000 C   0  0  0  0  0  0  0  0  0  0  0  0
    0.0000    0.0000    0.0000 C   0  0  0  0  0  0  0  0  0  0  0  0
    0.0000    0.0000    0.0000 C   0  0  0  0  0  0  0  0  0  0  0  0
    0.0000    0.0000    0.0000 C   0  0  0  0  0  0  0  0  0  0  0  0
    0.0000    0.0000    0.0000 C   0  0  0  0  0  0  0  0  0  0  0  0
    0.0000    0.0000    0.0000 N   0  0  0  0  0  0  0  0  0  0  0  0
    0.0000    0.0000    0.0000 C   0  0  0  0  0  0  0  0  0  0  0  0
    0.0000    0.0000    0.0000 C   0  0  0  0  0  0  0  0  0  0  0  0
    0.0000    0.0000    0.0000 C   0  0  0  0  0  0  0  0  0  0  0  0
    0.0000    0.0000    0.0000 C   0  0  0  0  0  0  0  0  0  0  0  0
  1  2  1  0
  2  3  1  0
  3  4  1  0
  4  5  1  0
  5  6  1  0
  6  7  2  0
  7  8  1  0
  8  9  2  0
  9 10  1  0
 10 11  1  0
 11 12  2  0
 12 13  1  0
 13 14  1  0
 14 15  1  0
 14 16  1  0
 16 17  1  0
 17 18  1  0
 18 19  1  0
 19 20  1  0
 20 21  1  0
 21 22  1  0
 14  2  1  0
 18  3  1  0
 13  5  2  0
 11  7  1  0
 22 20  1  0
M  END
>  <pIC50>  (537) 
6.77

>  <ChEMBL_ID>  (537) 
CHEMBL518712

>  <document_journal>  (537) 
Bioorg. Med. Chem. Lett.

>  <bao_endpoint>  (537) 
BAO_0000190

>  <potential_duplicate>  (537) 
False

>  <uo_units>  (537) 
UO_0000065

>  <canonical_smiles>  (537) 
C[C@H]1C2Cc3cc4nc[nH]c4cc3[C@@]1(C)CCN2CC5CC5

>  <parent_molecule_chembl_id>  (537) 
CHEMBL518712

>  <assay_type>  (537) 
F

>  <src_id>  (537) 
1

>  <ligand_efficiency>  (537) 
None

>  <standard_flag>  (537) 
True

>  <molecule_chembl_id>  (537) 
CHEMBL518712

>  <target_organism>  (537) 
Homo sapiens

>  <standard_units>  (537) 
nM

>  <record_id>  (537) 
807184

>  <document_chembl_id>  (537) 
CHEMBL1136834

>  <bao_format>  (537) 
BAO_0000219

>  <data_validity_description>  (537) 
None

>  <activity_id>  (537) 
2601100

>  <standard_type>  (537) 
IC50

>  <target_chembl_id>  (537) 
CHEMBL233

>  <data_validity_comment>  (537) 
None

>  <published_value>  (537) 
170

>  <document_year>  (537) 
2009

>  <target_pref_name>  (537) 
Mu opioid receptor

>  <assay_chembl_id>  (537) 
CHEMBL1030612

>  <standard_relation>  (537) 
=

>  <assay_description>  (537) 
Antagonist activity at human mu opioid receptor expressed in CHO cells assessed as inhibition of DAMGO-induced [35S]GTPgammaS binding

>  <published_relation>  (537) 
=

>  <standard_value>  (537) 
170

>  <qudt_units>  (537) 
http://www.openphacts.org/units/Nanomolar

>  <target_tax_id>  (537) 
9606

>  <bao_label>  (537) 
cell-based format

>  <published_units>  (537) 
nM

>  <pchembl_value>  (537) 
6.77

>  <published_type>  (537) 
IC50

>  <activity_comment>  (537) 
None

$$$$

     RDKit          

 20 22  0  0  0  0  0  0  0  0999 V2000
    0.0000    0.0000    0.0000 C   0  0  0  0  0  0  0  0  0  0  0  0
    0.0000    0.0000    0.0000 O   0  0  0  0  0  0  0  0  0  0  0  0
    0.0000    0.0000    0.0000 C   0  0  0  0  0  0  0  0  0  0  0  0
    0.0000    0.0000    0.0000 C   0  0  0  0  0  0  0  0  0  0  0  0
    0.0000    0.0000    0.0000 N   0  0  0  0  0  0  0  0  0  0  0  0
    0.0000    0.0000    0.0000 C   0  0  0  0  0  0  0  0  0  0  0  0
    0.0000    0.0000    0.0000 C   0  0  0  0  0  0  0  0  0  0  0  0
    0.0000    0.0000    0.0000 C   0  0  0  0  0  0  0  0  0  0  0  0
    0.0000    0.0000    0.0000 C   0  0  0  0  0  0  0  0  0  0  0  0
    0.0000    0.0000    0.0000 C   0  0  0  0  0  0  0  0  0  0  0  0
    0.0000    0.0000    0.0000 C   0  0  0  0  0  0  0  0  0  0  0  0
    0.0000    0.0000    0.0000 C   0  0  0  0  0  0  0  0  0  0  0  0
    0.0000    0.0000    0.0000 C   0  0  0  0  0  0  0  0  0  0  0  0
    0.0000    0.0000    0.0000 C   0  0  0  0  0  0  0  0  0  0  0  0
    0.0000    0.0000    0.0000 C   0  0  0  0  0  0  0  0  0  0  0  0
    0.0000    0.0000    0.0000 C   0  0  0  0  0  0  0  0  0  0  0  0
    0.0000    0.0000    0.0000 C   0  0  0  0  0  0  0  0  0  0  0  0
    0.0000    0.0000    0.0000 C   0  0  0  0  0  0  0  0  0  0  0  0
    0.0000    0.0000    0.0000 S   0  0  0  0  0  0  0  0  0  0  0  0
    0.0000    0.0000    0.0000 C   0  0  0  0  0  0  0  0  0  0  0  0
  1  2  1  0
  2  3  1  0
  3  4  1  0
  4  5  1  0
  5  6  1  0
  6  7  1  0
  7  8  1  0
  8  9  1  0
  9 10  1  0
 10 11  2  0
 11 12  1  0
 12 13  2  0
 13 14  1  0
 14 15  2  0
  7 16  1  0
 16 17  1  0
 17 18  2  0
 18 19  1  0
 19 20  1  0
 15  6  1  0
 15 10  1  0
 20 16  2  0
M  END
>  <pIC50>  (538) 
7.16

>  <ChEMBL_ID>  (538) 
CHEMBL450500

>  <document_journal>  (538) 
Bioorg. Med. Chem. Lett.

>  <bao_endpoint>  (538) 
BAO_0000190

>  <potential_duplicate>  (538) 
False

>  <uo_units>  (538) 
UO_0000065

>  <canonical_smiles>  (538) 
COCCNC1C(CCc2ccccc12)c3ccsc3

>  <parent_molecule_chembl_id>  (538) 
CHEMBL450500

>  <assay_type>  (538) 
B

>  <src_id>  (538) 
1

>  <ligand_efficiency>  (538) 
{u'le': u'0.49', u'bei': u'24.92', u'sei': u'14.47', u'lle': u'3.89'}

>  <standard_flag>  (538) 
True

>  <molecule_chembl_id>  (538) 
CHEMBL450500

>  <target_organism>  (538) 
Homo sapiens

>  <standard_units>  (538) 
nM

>  <record_id>  (538) 
805725

>  <document_chembl_id>  (538) 
CHEMBL1152717

>  <bao_format>  (538) 
BAO_0000357

>  <data_validity_description>  (538) 
None

>  <activity_id>  (538) 
2607442

>  <standard_type>  (538) 
IC50

>  <target_chembl_id>  (538) 
CHEMBL233

>  <data_validity_comment>  (538) 
None

>  <published_value>  (538) 
69

>  <document_year>  (538) 
2009

>  <target_pref_name>  (538) 
Mu opioid receptor

>  <assay_chembl_id>  (538) 
CHEMBL1030679

>  <standard_relation>  (538) 
=

>  <assay_description>  (538) 
Displacement of [125I]FK33824 from human cloned mu opioid receptor

>  <published_relation>  (538) 
=

>  <standard_value>  (538) 
69

>  <qudt_units>  (538) 
http://www.openphacts.org/units/Nanomolar

>  <target_tax_id>  (538) 
9606

>  <bao_label>  (538) 
single protein format

>  <published_units>  (538) 
nM

>  <pchembl_value>  (538) 
7.16

>  <published_type>  (538) 
IC50

>  <activity_comment>  (538) 
None

$$$$

     RDKit          

 20 22  0  0  0  0  0  0  0  0999 V2000
    0.0000    0.0000    0.0000 C   0  0  0  0  0  0  0  0  0  0  0  0
    0.0000    0.0000    0.0000 O   0  0  0  0  0  0  0  0  0  0  0  0
    0.0000    0.0000    0.0000 C   0  0  0  0  0  0  0  0  0  0  0  0
    0.0000    0.0000    0.0000 C   0  0  0  0  0  0  0  0  0  0  0  0
    0.0000    0.0000    0.0000 N   0  0  0  0  0  0  0  0  0  0  0  0
    0.0000    0.0000    0.0000 C   0  0  0  0  0  0  0  0  0  0  0  0
    0.0000    0.0000    0.0000 C   0  0  0  0  0  0  0  0  0  0  0  0
    0.0000    0.0000    0.0000 C   0  0  0  0  0  0  0  0  0  0  0  0
    0.0000    0.0000    0.0000 C   0  0  0  0  0  0  0  0  0  0  0  0
    0.0000    0.0000    0.0000 C   0  0  0  0  0  0  0  0  0  0  0  0
    0.0000    0.0000    0.0000 C   0  0  0  0  0  0  0  0  0  0  0  0
    0.0000    0.0000    0.0000 C   0  0  0  0  0  0  0  0  0  0  0  0
    0.0000    0.0000    0.0000 C   0  0  0  0  0  0  0  0  0  0  0  0
    0.0000    0.0000    0.0000 C   0  0  0  0  0  0  0  0  0  0  0  0
    0.0000    0.0000    0.0000 C   0  0  0  0  0  0  0  0  0  0  0  0
    0.0000    0.0000    0.0000 C   0  0  0  0  0  0  0  0  0  0  0  0
    0.0000    0.0000    0.0000 C   0  0  0  0  0  0  0  0  0  0  0  0
    0.0000    0.0000    0.0000 C   0  0  0  0  0  0  0  0  0  0  0  0
    0.0000    0.0000    0.0000 S   0  0  0  0  0  0  0  0  0  0  0  0
    0.0000    0.0000    0.0000 C   0  0  0  0  0  0  0  0  0  0  0  0
  1  2  1  0
  2  3  1  0
  3  4  1  0
  4  5  1  0
  5  6  1  0
  6  7  1  0
  7  8  1  0
  8  9  1  0
  9 10  1  0
 10 11  2  0
 11 12  1  0
 12 13  2  0
 13 14  1  0
 14 15  2  0
  7 16  1  0
 16 17  1  0
 17 18  2  0
 18 19  1  0
 19 20  1  0
 15  6  1  0
 15 10  1  0
 20 16  2  0
M  END
>  <pIC50>  (539) 
6.5

>  <ChEMBL_ID>  (539) 
CHEMBL512394

>  <document_journal>  (539) 
Bioorg. Med. Chem. Lett.

>  <bao_endpoint>  (539) 
BAO_0000190

>  <potential_duplicate>  (539) 
False

>  <uo_units>  (539) 
UO_0000065

>  <canonical_smiles>  (539) 
COCCN[C@H]1[C@@H](CCc2ccccc12)c3ccsc3

>  <parent_molecule_chembl_id>  (539) 
CHEMBL512394

>  <assay_type>  (539) 
B

>  <src_id>  (539) 
1

>  <ligand_efficiency>  (539) 
{u'le': u'0.57', u'bei': u'28.79', u'sei': u'16.72', u'lle': u'5.01'}

>  <standard_flag>  (539) 
True

>  <molecule_chembl_id>  (539) 
CHEMBL512394

>  <target_organism>  (539) 
Homo sapiens

>  <standard_units>  (539) 
nM

>  <record_id>  (539) 
805833

>  <document_chembl_id>  (539) 
CHEMBL1152717

>  <bao_format>  (539) 
BAO_0000357

>  <data_validity_description>  (539) 
None

>  <activity_id>  (539) 
2607443

>  <standard_type>  (539) 
IC50

>  <target_chembl_id>  (539) 
CHEMBL233

>  <data_validity_comment>  (539) 
None

>  <published_value>  (539) 
5.3

>  <document_year>  (539) 
2009

>  <target_pref_name>  (539) 
Mu opioid receptor

>  <assay_chembl_id>  (539) 
CHEMBL1030679

>  <standard_relation>  (539) 
=

>  <assay_description>  (539) 
Displacement of [125I]FK33824 from human cloned mu opioid receptor

>  <published_relation>  (539) 
=

>  <standard_value>  (539) 
5.3

>  <qudt_units>  (539) 
http://www.openphacts.org/units/Nanomolar

>  <target_tax_id>  (539) 
9606

>  <bao_label>  (539) 
single protein format

>  <published_units>  (539) 
nM

>  <pchembl_value>  (539) 
8.28

>  <published_type>  (539) 
IC50

>  <activity_comment>  (539) 
None

$$$$

     RDKit          

 29 32  0  0  0  0  0  0  0  0999 V2000
    0.0000    0.0000    0.0000 C   0  0  0  0  0  0  0  0  0  0  0  0
    0.0000    0.0000    0.0000 O   0  0  0  0  0  0  0  0  0  0  0  0
    0.0000    0.0000    0.0000 C   0  0  0  0  0  0  0  0  0  0  0  0
    0.0000    0.0000    0.0000 C   0  0  0  0  0  0  0  0  0  0  0  0
    0.0000    0.0000    0.0000 N   0  0  0  0  0  0  0  0  0  0  0  0
    0.0000    0.0000    0.0000 C   0  0  0  0  0  0  0  0  0  0  0  0
    0.0000    0.0000    0.0000 C   0  0  0  0  0  0  0  0  0  0  0  0
    0.0000    0.0000    0.0000 C   0  0  0  0  0  0  0  0  0  0  0  0
    0.0000    0.0000    0.0000 C   0  0  0  0  0  0  0  0  0  0  0  0
    0.0000    0.0000    0.0000 C   0  0  0  0  0  0  0  0  0  0  0  0
    0.0000    0.0000    0.0000 C   0  0  0  0  0  0  0  0  0  0  0  0
    0.0000    0.0000    0.0000 C   0  0  0  0  0  0  0  0  0  0  0  0
    0.0000    0.0000    0.0000 C   0  0  0  0  0  0  0  0  0  0  0  0
    0.0000    0.0000    0.0000 C   0  0  0  0  0  0  0  0  0  0  0  0
    0.0000    0.0000    0.0000 C   0  0  0  0  0  0  0  0  0  0  0  0
    0.0000    0.0000    0.0000 C   0  0  0  0  0  0  0  0  0  0  0  0
    0.0000    0.0000    0.0000 C   0  0  0  0  0  0  0  0  0  0  0  0
    0.0000    0.0000    0.0000 C   0  0  0  0  0  0  0  0  0  0  0  0
    0.0000    0.0000    0.0000 S   0  0  0  0  0  0  0  0  0  0  0  0
    0.0000    0.0000    0.0000 C   0  0  0  0  0  0  0  0  0  0  0  0
    0.0000    0.0000    0.0000 C   0  0  0  0  0  0  0  0  0  0  0  0
    0.0000    0.0000    0.0000 O   0  0  0  0  0  0  0  0  0  0  0  0
    0.0000    0.0000    0.0000 C   0  0  0  0  0  0  0  0  0  0  0  0
    0.0000    0.0000    0.0000 C   0  0  0  0  0  0  0  0  0  0  0  0
    0.0000    0.0000    0.0000 C   0  0  0  0  0  0  0  0  0  0  0  0
    0.0000    0.0000    0.0000 C   0  0  0  0  0  0  0  0  0  0  0  0
    0.0000    0.0000    0.0000 N   0  0  0  0  0  0  0  0  0  0  0  0
    0.0000    0.0000    0.0000 N   0  0  0  0  0  0  0  0  0  0  0  0
    0.0000    0.0000    0.0000 C   0  0  0  0  0  0  0  0  0  0  0  0
  1  2  1  0
  2  3  1  0
  3  4  1  0
  4  5  1  0
  5  6  1  0
  6  7  1  0
  7  8  1  0
  8  9  1  0
  9 10  1  0
 10 11  2  0
 11 12  1  0
 12 13  2  0
 13 14  1  0
 14 15  2  0
  7 16  1  0
 16 17  1  0
 17 18  2  0
 18 19  1  0
 19 20  1  0
  5 21  1  0
 21 22  2  0
 21 23  1  0
 23 24  2  0
 24 25  1  0
 25 26  1  0
 25 27  2  0
 27 28  1  0
 28 29  1  0
 15  6  1  0
 15 10  1  0
 20 16  2  0
 28 23  1  0
M  END
>  <pIC50>  (540) 
5.31

>  <ChEMBL_ID>  (540) 
CHEMBL518489

>  <document_journal>  (540) 
Bioorg. Med. Chem. Lett.

>  <bao_endpoint>  (540) 
BAO_0000190

>  <potential_duplicate>  (540) 
False

>  <uo_units>  (540) 
UO_0000065

>  <canonical_smiles>  (540) 
COCCN(C1C(CCc2ccccc12)c3ccsc3)C(=O)c4cc(C)nn4C

>  <parent_molecule_chembl_id>  (540) 
CHEMBL518489

>  <assay_type>  (540) 
B

>  <src_id>  (540) 
1

>  <ligand_efficiency>  (540) 
{u'le': u'0.25', u'bei': u'12.97', u'sei': u'7.03', u'lle': u'1.36'}

>  <standard_flag>  (540) 
True

>  <molecule_chembl_id>  (540) 
CHEMBL518489

>  <target_organism>  (540) 
Homo sapiens

>  <standard_units>  (540) 
nM

>  <record_id>  (540) 
805834

>  <document_chembl_id>  (540) 
CHEMBL1152717

>  <bao_format>  (540) 
BAO_0000357

>  <data_validity_description>  (540) 
None

>  <activity_id>  (540) 
2607444

>  <standard_type>  (540) 
IC50

>  <target_chembl_id>  (540) 
CHEMBL233

>  <data_validity_comment>  (540) 
None

>  <published_value>  (540) 
4862

>  <document_year>  (540) 
2009

>  <target_pref_name>  (540) 
Mu opioid receptor

>  <assay_chembl_id>  (540) 
CHEMBL1030679

>  <standard_relation>  (540) 
=

>  <assay_description>  (540) 
Displacement of [125I]FK33824 from human cloned mu opioid receptor

>  <published_relation>  (540) 
=

>  <standard_value>  (540) 
4862

>  <qudt_units>  (540) 
http://www.openphacts.org/units/Nanomolar

>  <target_tax_id>  (540) 
9606

>  <bao_label>  (540) 
single protein format

>  <published_units>  (540) 
nM

>  <pchembl_value>  (540) 
5.31

>  <published_type>  (540) 
IC50

>  <activity_comment>  (540) 
None

$$$$

     RDKit          

 34 38  0  0  0  0  0  0  0  0999 V2000
    0.0000    0.0000    0.0000 C   0  0  0  0  0  0  0  0  0  0  0  0
    0.0000    0.0000    0.0000 O   0  0  0  0  0  0  0  0  0  0  0  0
    0.0000    0.0000    0.0000 C   0  0  0  0  0  0  0  0  0  0  0  0
    0.0000    0.0000    0.0000 C   0  0  0  0  0  0  0  0  0  0  0  0
    0.0000    0.0000    0.0000 N   0  0  0  0  0  0  0  0  0  0  0  0
    0.0000    0.0000    0.0000 C   0  0  0  0  0  0  0  0  0  0  0  0
    0.0000    0.0000    0.0000 C   0  0  0  0  0  0  0  0  0  0  0  0
    0.0000    0.0000    0.0000 C   0  0  0  0  0  0  0  0  0  0  0  0
    0.0000    0.0000    0.0000 C   0  0  0  0  0  0  0  0  0  0  0  0
    0.0000    0.0000    0.0000 C   0  0  0  0  0  0  0  0  0  0  0  0
    0.0000    0.0000    0.0000 C   0  0  0  0  0  0  0  0  0  0  0  0
    0.0000    0.0000    0.0000 C   0  0  0  0  0  0  0  0  0  0  0  0
    0.0000    0.0000    0.0000 C   0  0  0  0  0  0  0  0  0  0  0  0
    0.0000    0.0000    0.0000 C   0  0  0  0  0  0  0  0  0  0  0  0
    0.0000    0.0000    0.0000 C   0  0  0  0  0  0  0  0  0  0  0  0
    0.0000    0.0000    0.0000 N   0  0  0  0  0  0  0  0  0  0  0  0
    0.0000    0.0000    0.0000 C   0  0  0  0  0  0  0  0  0  0  0  0
    0.0000    0.0000    0.0000 C   0  0  0  0  0  0  0  0  0  0  0  0
    0.0000    0.0000    0.0000 N   0  0  0  0  0  0  0  0  0  0  0  0
    0.0000    0.0000    0.0000 C   0  0  0  0  0  0  0  0  0  0  0  0
    0.0000    0.0000    0.0000 C   0  0  0  0  0  0  0  0  0  0  0  0
    0.0000    0.0000    0.0000 C   0  0  0  0  0  0  0  0  0  0  0  0
    0.0000    0.0000    0.0000 C   0  0  0  0  0  0  0  0  0  0  0  0
    0.0000    0.0000    0.0000 C   0  0  0  0  0  0  0  0  0  0  0  0
    0.0000    0.0000    0.0000 C   0  0  0  0  0  0  0  0  0  0  0  0
    0.0000    0.0000    0.0000 C   0  0  0  0  0  0  0  0  0  0  0  0
    0.0000    0.0000    0.0000 C   0  0  0  0  0  0  0  0  0  0  0  0
    0.0000    0.0000    0.0000 C   0  0  0  0  0  0  0  0  0  0  0  0
    0.0000    0.0000    0.0000 O   0  0  0  0  0  0  0  0  0  0  0  0
    0.0000    0.0000    0.0000 C   0  0  0  0  0  0  0  0  0  0  0  0
    0.0000    0.0000    0.0000 O   0  0  0  0  0  0  0  0  0  0  0  0
    0.0000    0.0000    0.0000 C   0  0  0  0  0  0  0  0  0  0  0  0
    0.0000    0.0000    0.0000 C   0  0  0  0  0  0  0  0  0  0  0  0
    0.0000    0.0000    0.0000 C   0  0  0  0  0  0  0  0  0  0  0  0
  1  2  1  0
  2  3  1  0
  3  4  1  0
  4  5  1  0
  5  6  1  0
  6  7  1  0
  7  8  1  0
  8  9  2  0
  9 10  1  0
 10 11  2  0
 11 12  1  0
 12 13  2  0
 13 14  1  0
 14 15  2  0
  7 16  1  0
 16 17  1  0
 17 18  1  0
 18 19  1  0
 19 20  1  0
 20 21  1  0
 19 22  1  0
 22 23  2  0
 23 24  1  0
 24 25  2  0
 25 26  1  0
 26 27  2  0
  5 28  1  0
 28 29  2  0
 28 30  1  0
 30 31  1  0
 31 32  1  0
 32 33  2  0
 33 34  1  0
 15  6  1  0
 15 10  1  0
 21 16  1  0
 27 22  1  0
 34 30  2  0
M  END
>  <pIC50>  (541) 
6.9

>  <ChEMBL_ID>  (541) 
CHEMBL460623

>  <document_journal>  (541) 
Bioorg. Med. Chem. Lett.

>  <bao_endpoint>  (541) 
BAO_0000190

>  <potential_duplicate>  (541) 
False

>  <uo_units>  (541) 
UO_0000065

>  <canonical_smiles>  (541) 
COCCN(C1C(C=Cc2ccccc12)N3CCN(CC3)c4ccccc4)C(=O)c5occc5

>  <parent_molecule_chembl_id>  (541) 
CHEMBL460623

>  <assay_type>  (541) 
B

>  <src_id>  (541) 
1

>  <ligand_efficiency>  (541) 
{u'le': u'0.28', u'bei': u'15.08', u'sei': u'14.04', u'lle': u'2.76'}

>  <standard_flag>  (541) 
True

>  <molecule_chembl_id>  (541) 
CHEMBL460623

>  <target_organism>  (541) 
Homo sapiens

>  <standard_units>  (541) 
nM

>  <record_id>  (541) 
805835

>  <document_chembl_id>  (541) 
CHEMBL1152717

>  <bao_format>  (541) 
BAO_0000357

>  <data_validity_description>  (541) 
None

>  <activity_id>  (541) 
2607445

>  <standard_type>  (541) 
IC50

>  <target_chembl_id>  (541) 
CHEMBL233

>  <data_validity_comment>  (541) 
None

>  <published_value>  (541) 
126

>  <document_year>  (541) 
2009

>  <target_pref_name>  (541) 
Mu opioid receptor

>  <assay_chembl_id>  (541) 
CHEMBL1030679

>  <standard_relation>  (541) 
=

>  <assay_description>  (541) 
Displacement of [125I]FK33824 from human cloned mu opioid receptor

>  <published_relation>  (541) 
=

>  <standard_value>  (541) 
126

>  <qudt_units>  (541) 
http://www.openphacts.org/units/Nanomolar

>  <target_tax_id>  (541) 
9606

>  <bao_label>  (541) 
single protein format

>  <published_units>  (541) 
nM

>  <pchembl_value>  (541) 
6.9

>  <published_type>  (541) 
IC50

>  <activity_comment>  (541) 
None

$$$$

     RDKit          

 37 41  0  0  0  0  0  0  0  0999 V2000
    0.0000    0.0000    0.0000 C   0  0  0  0  0  0  0  0  0  0  0  0
    0.0000    0.0000    0.0000 O   0  0  0  0  0  0  0  0  0  0  0  0
    0.0000    0.0000    0.0000 C   0  0  0  0  0  0  0  0  0  0  0  0
    0.0000    0.0000    0.0000 C   0  0  0  0  0  0  0  0  0  0  0  0
    0.0000    0.0000    0.0000 N   0  0  0  0  0  0  0  0  0  0  0  0
    0.0000    0.0000    0.0000 C   0  0  0  0  0  0  0  0  0  0  0  0
    0.0000    0.0000    0.0000 C   0  0  0  0  0  0  0  0  0  0  0  0
    0.0000    0.0000    0.0000 C   0  0  0  0  0  0  0  0  0  0  0  0
    0.0000    0.0000    0.0000 C   0  0  0  0  0  0  0  0  0  0  0  0
    0.0000    0.0000    0.0000 C   0  0  0  0  0  0  0  0  0  0  0  0
    0.0000    0.0000    0.0000 C   0  0  0  0  0  0  0  0  0  0  0  0
    0.0000    0.0000    0.0000 C   0  0  0  0  0  0  0  0  0  0  0  0
    0.0000    0.0000    0.0000 C   0  0  0  0  0  0  0  0  0  0  0  0
    0.0000    0.0000    0.0000 C   0  0  0  0  0  0  0  0  0  0  0  0
    0.0000    0.0000    0.0000 C   0  0  0  0  0  0  0  0  0  0  0  0
    0.0000    0.0000    0.0000 N   0  0  0  0  0  0  0  0  0  0  0  0
    0.0000    0.0000    0.0000 C   0  0  0  0  0  0  0  0  0  0  0  0
    0.0000    0.0000    0.0000 C   0  0  0  0  0  0  0  0  0  0  0  0
    0.0000    0.0000    0.0000 N   0  0  0  0  0  0  0  0  0  0  0  0
    0.0000    0.0000    0.0000 C   0  0  0  0  0  0  0  0  0  0  0  0
    0.0000    0.0000    0.0000 C   0  0  0  0  0  0  0  0  0  0  0  0
    0.0000    0.0000    0.0000 C   0  0  0  0  0  0  0  0  0  0  0  0
    0.0000    0.0000    0.0000 C   0  0  0  0  0  0  0  0  0  0  0  0
    0.0000    0.0000    0.0000 C   0  0  0  0  0  0  0  0  0  0  0  0
    0.0000    0.0000    0.0000 C   0  0  0  0  0  0  0  0  0  0  0  0
    0.0000    0.0000    0.0000 C   0  0  0  0  0  0  0  0  0  0  0  0
    0.0000    0.0000    0.0000 C   0  0  0  0  0  0  0  0  0  0  0  0
    0.0000    0.0000    0.0000 C   0  0  0  0  0  0  0  0  0  0  0  0
    0.0000    0.0000    0.0000 O   0  0  0  0  0  0  0  0  0  0  0  0
    0.0000    0.0000    0.0000 C   0  0  0  0  0  0  0  0  0  0  0  0
    0.0000    0.0000    0.0000 C   0  0  0  0  0  0  0  0  0  0  0  0
    0.0000    0.0000    0.0000 C   0  0  0  0  0  0  0  0  0  0  0  0
    0.0000    0.0000    0.0000 C   0  0  0  0  0  0  0  0  0  0  0  0
    0.0000    0.0000    0.0000 Cl  0  0  0  0  0  0  0  0  0  0  0  0
    0.0000    0.0000    0.0000 C   0  0  0  0  0  0  0  0  0  0  0  0
    0.0000    0.0000    0.0000 Cl  0  0  0  0  0  0  0  0  0  0  0  0
    0.0000    0.0000    0.0000 C   0  0  0  0  0  0  0  0  0  0  0  0
  1  2  1  0
  2  3  1  0
  3  4  1  0
  4  5  1  0
  5  6  1  0
  6  7  1  0
  7  8  1  0
  8  9  2  0
  9 10  1  0
 10 11  2  0
 11 12  1  0
 12 13  2  0
 13 14  1  0
 14 15  2  0
  7 16  1  0
 16 17  1  0
 17 18  1  0
 18 19  1  0
 19 20  1  0
 20 21  1  0
 19 22  1  0
 22 23  2  0
 23 24  1  0
 24 25  2  0
 25 26  1  0
 26 27  2  0
  5 28  1  0
 28 29  2  0
 28 30  1  0
 30 31  2  0
 31 32  1  0
 32 33  2  0
 33 34  1  0
 33 35  1  0
 35 36  1  0
 35 37  2  0
 15  6  1  0
 15 10  1  0
 21 16  1  0
 27 22  1  0
 37 30  1  0
M  END
>  <pIC50>  (542) 
6.35

>  <ChEMBL_ID>  (542) 
CHEMBL460832

>  <document_journal>  (542) 
Bioorg. Med. Chem. Lett.

>  <bao_endpoint>  (542) 
BAO_0000190

>  <potential_duplicate>  (542) 
False

>  <uo_units>  (542) 
UO_0000065

>  <canonical_smiles>  (542) 
COCCN(C1C(C=Cc2ccccc12)N3CCN(CC3)c4ccccc4)C(=O)c5ccc(Cl)c(Cl)c5

>  <parent_molecule_chembl_id>  (542) 
CHEMBL460832

>  <assay_type>  (542) 
B

>  <src_id>  (542) 
1

>  <ligand_efficiency>  (542) 
{u'le': u'0.23', u'bei': u'11.84', u'sei': u'17.64', u'lle': u'0.28'}

>  <standard_flag>  (542) 
True

>  <molecule_chembl_id>  (542) 
CHEMBL460832

>  <target_organism>  (542) 
Homo sapiens

>  <standard_units>  (542) 
nM

>  <record_id>  (542) 
805836

>  <document_chembl_id>  (542) 
CHEMBL1152717

>  <bao_format>  (542) 
BAO_0000357

>  <data_validity_description>  (542) 
None

>  <activity_id>  (542) 
2607446

>  <standard_type>  (542) 
IC50

>  <target_chembl_id>  (542) 
CHEMBL233

>  <data_validity_comment>  (542) 
None

>  <published_value>  (542) 
443

>  <document_year>  (542) 
2009

>  <target_pref_name>  (542) 
Mu opioid receptor

>  <assay_chembl_id>  (542) 
CHEMBL1030679

>  <standard_relation>  (542) 
=

>  <assay_description>  (542) 
Displacement of [125I]FK33824 from human cloned mu opioid receptor

>  <published_relation>  (542) 
=

>  <standard_value>  (542) 
443

>  <qudt_units>  (542) 
http://www.openphacts.org/units/Nanomolar

>  <target_tax_id>  (542) 
9606

>  <bao_label>  (542) 
single protein format

>  <published_units>  (542) 
nM

>  <pchembl_value>  (542) 
6.35

>  <published_type>  (542) 
IC50

>  <activity_comment>  (542) 
None

$$$$

     RDKit          

 38 42  0  0  0  0  0  0  0  0999 V2000
    0.0000    0.0000    0.0000 C   0  0  0  0  0  0  0  0  0  0  0  0
    0.0000    0.0000    0.0000 O   0  0  0  0  0  0  0  0  0  0  0  0
    0.0000    0.0000    0.0000 C   0  0  0  0  0  0  0  0  0  0  0  0
    0.0000    0.0000    0.0000 C   0  0  0  0  0  0  0  0  0  0  0  0
    0.0000    0.0000    0.0000 N   0  0  0  0  0  0  0  0  0  0  0  0
    0.0000    0.0000    0.0000 C   0  0  0  0  0  0  0  0  0  0  0  0
    0.0000    0.0000    0.0000 C   0  0  0  0  0  0  0  0  0  0  0  0
    0.0000    0.0000    0.0000 C   0  0  0  0  0  0  0  0  0  0  0  0
    0.0000    0.0000    0.0000 C   0  0  0  0  0  0  0  0  0  0  0  0
    0.0000    0.0000    0.0000 C   0  0  0  0  0  0  0  0  0  0  0  0
    0.0000    0.0000    0.0000 C   0  0  0  0  0  0  0  0  0  0  0  0
    0.0000    0.0000    0.0000 C   0  0  0  0  0  0  0  0  0  0  0  0
    0.0000    0.0000    0.0000 C   0  0  0  0  0  0  0  0  0  0  0  0
    0.0000    0.0000    0.0000 C   0  0  0  0  0  0  0  0  0  0  0  0
    0.0000    0.0000    0.0000 C   0  0  0  0  0  0  0  0  0  0  0  0
    0.0000    0.0000    0.0000 N   0  0  0  0  0  0  0  0  0  0  0  0
    0.0000    0.0000    0.0000 C   0  0  0  0  0  0  0  0  0  0  0  0
    0.0000    0.0000    0.0000 C   0  0  0  0  0  0  0  0  0  0  0  0
    0.0000    0.0000    0.0000 N   0  0  0  0  0  0  0  0  0  0  0  0
    0.0000    0.0000    0.0000 C   0  0  0  0  0  0  0  0  0  0  0  0
    0.0000    0.0000    0.0000 C   0  0  0  0  0  0  0  0  0  0  0  0
    0.0000    0.0000    0.0000 C   0  0  0  0  0  0  0  0  0  0  0  0
    0.0000    0.0000    0.0000 C   0  0  0  0  0  0  0  0  0  0  0  0
    0.0000    0.0000    0.0000 C   0  0  0  0  0  0  0  0  0  0  0  0
    0.0000    0.0000    0.0000 C   0  0  0  0  0  0  0  0  0  0  0  0
    0.0000    0.0000    0.0000 C   0  0  0  0  0  0  0  0  0  0  0  0
    0.0000    0.0000    0.0000 C   0  0  0  0  0  0  0  0  0  0  0  0
    0.0000    0.0000    0.0000 C   0  0  0  0  0  0  0  0  0  0  0  0
    0.0000    0.0000    0.0000 O   0  0  0  0  0  0  0  0  0  0  0  0
    0.0000    0.0000    0.0000 C   0  0  0  0  0  0  0  0  0  0  0  0
    0.0000    0.0000    0.0000 O   0  0  0  0  0  0  0  0  0  0  0  0
    0.0000    0.0000    0.0000 C   0  0  0  0  0  0  0  0  0  0  0  0
    0.0000    0.0000    0.0000 C   0  0  0  0  0  0  0  0  0  0  0  0
    0.0000    0.0000    0.0000 C   0  0  0  0  0  0  0  0  0  0  0  0
    0.0000    0.0000    0.0000 C   0  0  0  0  0  0  0  0  0  0  0  0
    0.0000    0.0000    0.0000 C   0  0  0  0  0  0  0  0  0  0  0  0
    0.0000    0.0000    0.0000 C   0  0  0  0  0  0  0  0  0  0  0  0
    0.0000    0.0000    0.0000 C   0  0  0  0  0  0  0  0  0  0  0  0
  1  2  1  0
  2  3  1  0
  3  4  1  0
  4  5  1  0
  5  6  1  0
  6  7  1  0
  7  8  1  0
  8  9  2  0
  9 10  1  0
 10 11  2  0
 11 12  1  0
 12 13  2  0
 13 14  1  0
 14 15  2  0
  7 16  1  0
 16 17  1  0
 17 18  1  0
 18 19  1  0
 19 20  1  0
 20 21  1  0
 19 22  1  0
 22 23  2  0
 23 24  1  0
 24 25  2  0
 25 26  1  0
 26 27  2  0
  5 28  1  0
 28 29  2  0
 28 30  1  0
 30 31  1  0
 31 32  1  0
 32 33  1  0
 33 34  2  0
 34 35  1  0
 35 36  2  0
 36 37  1  0
 37 38  2  0
 15  6  1  0
 15 10  1  0
 21 16  1  0
 27 22  1  0
 38 33  1  0
M  END
>  <pIC50>  (543) 
6.68

>  <ChEMBL_ID>  (543) 
CHEMBL459573

>  <document_journal>  (543) 
Bioorg. Med. Chem. Lett.

>  <bao_endpoint>  (543) 
BAO_0000190

>  <potential_duplicate>  (543) 
False

>  <uo_units>  (543) 
UO_0000065

>  <canonical_smiles>  (543) 
COCCN(C1C(C=Cc2ccccc12)N3CCN(CC3)c4ccccc4)C(=O)COCc5ccccc5

>  <parent_molecule_chembl_id>  (543) 
CHEMBL459573

>  <assay_type>  (543) 
B

>  <src_id>  (543) 
1

>  <ligand_efficiency>  (543) 
{u'le': u'0.24', u'bei': u'13.05', u'sei': u'14.75', u'lle': u'2.28'}

>  <standard_flag>  (543) 
True

>  <molecule_chembl_id>  (543) 
CHEMBL459573

>  <target_organism>  (543) 
Homo sapiens

>  <standard_units>  (543) 
nM

>  <record_id>  (543) 
805923

>  <document_chembl_id>  (543) 
CHEMBL1152717

>  <bao_format>  (543) 
BAO_0000357

>  <data_validity_description>  (543) 
None

>  <activity_id>  (543) 
2607447

>  <standard_type>  (543) 
IC50

>  <target_chembl_id>  (543) 
CHEMBL233

>  <data_validity_comment>  (543) 
None

>  <published_value>  (543) 
211

>  <document_year>  (543) 
2009

>  <target_pref_name>  (543) 
Mu opioid receptor

>  <assay_chembl_id>  (543) 
CHEMBL1030679

>  <standard_relation>  (543) 
=

>  <assay_description>  (543) 
Displacement of [125I]FK33824 from human cloned mu opioid receptor

>  <published_relation>  (543) 
=

>  <standard_value>  (543) 
211

>  <qudt_units>  (543) 
http://www.openphacts.org/units/Nanomolar

>  <target_tax_id>  (543) 
9606

>  <bao_label>  (543) 
single protein format

>  <published_units>  (543) 
nM

>  <pchembl_value>  (543) 
6.68

>  <published_type>  (543) 
IC50

>  <activity_comment>  (543) 
None

$$$$

     RDKit          

 38 42  0  0  0  0  0  0  0  0999 V2000
    0.0000    0.0000    0.0000 C   0  0  0  0  0  0  0  0  0  0  0  0
    0.0000    0.0000    0.0000 O   0  0  0  0  0  0  0  0  0  0  0  0
    0.0000    0.0000    0.0000 C   0  0  0  0  0  0  0  0  0  0  0  0
    0.0000    0.0000    0.0000 C   0  0  0  0  0  0  0  0  0  0  0  0
    0.0000    0.0000    0.0000 N   0  0  0  0  0  0  0  0  0  0  0  0
    0.0000    0.0000    0.0000 C   0  0  0  0  0  0  0  0  0  0  0  0
    0.0000    0.0000    0.0000 C   0  0  0  0  0  0  0  0  0  0  0  0
    0.0000    0.0000    0.0000 C   0  0  0  0  0  0  0  0  0  0  0  0
    0.0000    0.0000    0.0000 C   0  0  0  0  0  0  0  0  0  0  0  0
    0.0000    0.0000    0.0000 C   0  0  0  0  0  0  0  0  0  0  0  0
    0.0000    0.0000    0.0000 C   0  0  0  0  0  0  0  0  0  0  0  0
    0.0000    0.0000    0.0000 C   0  0  0  0  0  0  0  0  0  0  0  0
    0.0000    0.0000    0.0000 C   0  0  0  0  0  0  0  0  0  0  0  0
    0.0000    0.0000    0.0000 C   0  0  0  0  0  0  0  0  0  0  0  0
    0.0000    0.0000    0.0000 C   0  0  0  0  0  0  0  0  0  0  0  0
    0.0000    0.0000    0.0000 N   0  0  0  0  0  0  0  0  0  0  0  0
    0.0000    0.0000    0.0000 C   0  0  0  0  0  0  0  0  0  0  0  0
    0.0000    0.0000    0.0000 C   0  0  0  0  0  0  0  0  0  0  0  0
    0.0000    0.0000    0.0000 N   0  0  0  0  0  0  0  0  0  0  0  0
    0.0000    0.0000    0.0000 C   0  0  0  0  0  0  0  0  0  0  0  0
    0.0000    0.0000    0.0000 C   0  0  0  0  0  0  0  0  0  0  0  0
    0.0000    0.0000    0.0000 C   0  0  0  0  0  0  0  0  0  0  0  0
    0.0000    0.0000    0.0000 C   0  0  0  0  0  0  0  0  0  0  0  0
    0.0000    0.0000    0.0000 C   0  0  0  0  0  0  0  0  0  0  0  0
    0.0000    0.0000    0.0000 C   0  0  0  0  0  0  0  0  0  0  0  0
    0.0000    0.0000    0.0000 C   0  0  0  0  0  0  0  0  0  0  0  0
    0.0000    0.0000    0.0000 C   0  0  0  0  0  0  0  0  0  0  0  0
    0.0000    0.0000    0.0000 C   0  0  0  0  0  0  0  0  0  0  0  0
    0.0000    0.0000    0.0000 O   0  0  0  0  0  0  0  0  0  0  0  0
    0.0000    0.0000    0.0000 C   0  0  0  0  0  0  0  0  0  0  0  0
    0.0000    0.0000    0.0000 C   0  0  0  0  0  0  0  0  0  0  0  0
    0.0000    0.0000    0.0000 C   0  0  0  0  0  0  0  0  0  0  0  0
    0.0000    0.0000    0.0000 C   0  0  0  0  0  0  0  0  0  0  0  0
    0.0000    0.0000    0.0000 C   0  0  0  0  0  0  0  0  0  0  0  0
    0.0000    0.0000    0.0000 C   0  0  0  0  0  0  0  0  0  0  0  0
    0.0000    0.0000    0.0000 O   0  0  0  0  0  0  0  0  0  0  0  0
    0.0000    0.0000    0.0000 C   0  0  0  0  0  0  0  0  0  0  0  0
    0.0000    0.0000    0.0000 C   0  0  0  0  0  0  0  0  0  0  0  0
  1  2  1  0
  2  3  1  0
  3  4  1  0
  4  5  1  0
  5  6  1  0
  6  7  1  0
  7  8  1  0
  8  9  2  0
  9 10  1  0
 10 11  2  0
 11 12  1  0
 12 13  2  0
 13 14  1  0
 14 15  2  0
  7 16  1  0
 16 17  1  0
 17 18  1  0
 18 19  1  0
 19 20  1  0
 20 21  1  0
 19 22  1  0
 22 23  2  0
 23 24  1  0
 24 25  2  0
 25 26  1  0
 26 27  2  0
  5 28  1  0
 28 29  2  0
 28 30  1  0
 30 31  1  0
 31 32  2  0
 32 33  1  0
 33 34  2  0
 34 35  1  0
 35 36  1  0
 36 37  1  0
 35 38  2  0
 15  6  1  0
 15 10  1  0
 21 16  1  0
 27 22  1  0
 38 31  1  0
M  END
>  <pIC50>  (544) 
6.82

>  <ChEMBL_ID>  (544) 
CHEMBL459783

>  <document_journal>  (544) 
Bioorg. Med. Chem. Lett.

>  <bao_endpoint>  (544) 
BAO_0000190

>  <potential_duplicate>  (544) 
False

>  <uo_units>  (544) 
UO_0000065

>  <canonical_smiles>  (544) 
COCCN(C1C(C=Cc2ccccc12)N3CCN(CC3)c4ccccc4)C(=O)Cc5cccc(OC)c5

>  <parent_molecule_chembl_id>  (544) 
CHEMBL459783

>  <assay_type>  (544) 
B

>  <src_id>  (544) 
1

>  <ligand_efficiency>  (544) 
{u'le': u'0.25', u'bei': u'13.33', u'sei': u'15.07', u'lle': u'2.06'}

>  <standard_flag>  (544) 
True

>  <molecule_chembl_id>  (544) 
CHEMBL459783

>  <target_organism>  (544) 
Homo sapiens

>  <standard_units>  (544) 
nM

>  <record_id>  (544) 
805924

>  <document_chembl_id>  (544) 
CHEMBL1152717

>  <bao_format>  (544) 
BAO_0000357

>  <data_validity_description>  (544) 
None

>  <activity_id>  (544) 
2607448

>  <standard_type>  (544) 
IC50

>  <target_chembl_id>  (544) 
CHEMBL233

>  <data_validity_comment>  (544) 
None

>  <published_value>  (544) 
151

>  <document_year>  (544) 
2009

>  <target_pref_name>  (544) 
Mu opioid receptor

>  <assay_chembl_id>  (544) 
CHEMBL1030679

>  <standard_relation>  (544) 
=

>  <assay_description>  (544) 
Displacement of [125I]FK33824 from human cloned mu opioid receptor

>  <published_relation>  (544) 
=

>  <standard_value>  (544) 
151

>  <qudt_units>  (544) 
http://www.openphacts.org/units/Nanomolar

>  <target_tax_id>  (544) 
9606

>  <bao_label>  (544) 
single protein format

>  <published_units>  (544) 
nM

>  <pchembl_value>  (544) 
6.82

>  <published_type>  (544) 
IC50

>  <activity_comment>  (544) 
None

$$$$

     RDKit          

 37 41  0  0  0  0  0  0  0  0999 V2000
    0.0000    0.0000    0.0000 C   0  0  0  0  0  0  0  0  0  0  0  0
    0.0000    0.0000    0.0000 O   0  0  0  0  0  0  0  0  0  0  0  0
    0.0000    0.0000    0.0000 C   0  0  0  0  0  0  0  0  0  0  0  0
    0.0000    0.0000    0.0000 C   0  0  0  0  0  0  0  0  0  0  0  0
    0.0000    0.0000    0.0000 N   0  0  0  0  0  0  0  0  0  0  0  0
    0.0000    0.0000    0.0000 C   0  0  0  0  0  0  0  0  0  0  0  0
    0.0000    0.0000    0.0000 C   0  0  0  0  0  0  0  0  0  0  0  0
    0.0000    0.0000    0.0000 C   0  0  0  0  0  0  0  0  0  0  0  0
    0.0000    0.0000    0.0000 C   0  0  0  0  0  0  0  0  0  0  0  0
    0.0000    0.0000    0.0000 C   0  0  0  0  0  0  0  0  0  0  0  0
    0.0000    0.0000    0.0000 C   0  0  0  0  0  0  0  0  0  0  0  0
    0.0000    0.0000    0.0000 C   0  0  0  0  0  0  0  0  0  0  0  0
    0.0000    0.0000    0.0000 C   0  0  0  0  0  0  0  0  0  0  0  0
    0.0000    0.0000    0.0000 C   0  0  0  0  0  0  0  0  0  0  0  0
    0.0000    0.0000    0.0000 C   0  0  0  0  0  0  0  0  0  0  0  0
    0.0000    0.0000    0.0000 N   0  0  0  0  0  0  0  0  0  0  0  0
    0.0000    0.0000    0.0000 C   0  0  0  0  0  0  0  0  0  0  0  0
    0.0000    0.0000    0.0000 C   0  0  0  0  0  0  0  0  0  0  0  0
    0.0000    0.0000    0.0000 N   0  0  0  0  0  0  0  0  0  0  0  0
    0.0000    0.0000    0.0000 C   0  0  0  0  0  0  0  0  0  0  0  0
    0.0000    0.0000    0.0000 C   0  0  0  0  0  0  0  0  0  0  0  0
    0.0000    0.0000    0.0000 C   0  0  0  0  0  0  0  0  0  0  0  0
    0.0000    0.0000    0.0000 C   0  0  0  0  0  0  0  0  0  0  0  0
    0.0000    0.0000    0.0000 C   0  0  0  0  0  0  0  0  0  0  0  0
    0.0000    0.0000    0.0000 C   0  0  0  0  0  0  0  0  0  0  0  0
    0.0000    0.0000    0.0000 C   0  0  0  0  0  0  0  0  0  0  0  0
    0.0000    0.0000    0.0000 C   0  0  0  0  0  0  0  0  0  0  0  0
    0.0000    0.0000    0.0000 C   0  0  0  0  0  0  0  0  0  0  0  0
    0.0000    0.0000    0.0000 O   0  0  0  0  0  0  0  0  0  0  0  0
    0.0000    0.0000    0.0000 C   0  0  0  0  0  0  0  0  0  0  0  0
    0.0000    0.0000    0.0000 C   0  0  0  0  0  0  0  0  0  0  0  0
    0.0000    0.0000    0.0000 C   0  0  0  0  0  0  0  0  0  0  0  0
    0.0000    0.0000    0.0000 C   0  0  0  0  0  0  0  0  0  0  0  0
    0.0000    0.0000    0.0000 C   0  0  0  0  0  0  0  0  0  0  0  0
    0.0000    0.0000    0.0000 Cl  0  0  0  0  0  0  0  0  0  0  0  0
    0.0000    0.0000    0.0000 C   0  0  0  0  0  0  0  0  0  0  0  0
    0.0000    0.0000    0.0000 C   0  0  0  0  0  0  0  0  0  0  0  0
  1  2  1  0
  2  3  1  0
  3  4  1  0
  4  5  1  0
  5  6  1  0
  6  7  1  0
  7  8  1  0
  8  9  2  0
  9 10  1  0
 10 11  2  0
 11 12  1  0
 12 13  2  0
 13 14  1  0
 14 15  2  0
  7 16  1  0
 16 17  1  0
 17 18  1  0
 18 19  1  0
 19 20  1  0
 20 21  1  0
 19 22  1  0
 22 23  2  0
 23 24  1  0
 24 25  2  0
 25 26  1  0
 26 27  2  0
  5 28  1  0
 28 29  2  0
 28 30  1  0
 30 31  1  0
 31 32  2  0
 32 33  1  0
 33 34  2  0
 34 35  1  0
 34 36  1  0
 36 37  2  0
 15  6  1  0
 15 10  1  0
 21 16  1  0
 27 22  1  0
 37 31  1  0
M  END
>  <pIC50>  (545) 
6.74

>  <ChEMBL_ID>  (545) 
CHEMBL459784

>  <document_journal>  (545) 
Bioorg. Med. Chem. Lett.

>  <bao_endpoint>  (545) 
BAO_0000190

>  <potential_duplicate>  (545) 
False

>  <uo_units>  (545) 
UO_0000065

>  <canonical_smiles>  (545) 
COCCN(C1C(C=Cc2ccccc12)N3CCN(CC3)c4ccccc4)C(=O)Cc5ccc(Cl)cc5

>  <parent_molecule_chembl_id>  (545) 
CHEMBL459784

>  <assay_type>  (545) 
B

>  <src_id>  (545) 
1

>  <ligand_efficiency>  (545) 
{u'le': u'0.25', u'bei': u'13.06', u'sei': u'18.72', u'lle': u'1.3'}

>  <standard_flag>  (545) 
True

>  <molecule_chembl_id>  (545) 
CHEMBL459784

>  <target_organism>  (545) 
Homo sapiens

>  <standard_units>  (545) 
nM

>  <record_id>  (545) 
805925

>  <document_chembl_id>  (545) 
CHEMBL1152717

>  <bao_format>  (545) 
BAO_0000357

>  <data_validity_description>  (545) 
None

>  <activity_id>  (545) 
2607449

>  <standard_type>  (545) 
IC50

>  <target_chembl_id>  (545) 
CHEMBL233

>  <data_validity_comment>  (545) 
None

>  <published_value>  (545) 
181

>  <document_year>  (545) 
2009

>  <target_pref_name>  (545) 
Mu opioid receptor

>  <assay_chembl_id>  (545) 
CHEMBL1030679

>  <standard_relation>  (545) 
=

>  <assay_description>  (545) 
Displacement of [125I]FK33824 from human cloned mu opioid receptor

>  <published_relation>  (545) 
=

>  <standard_value>  (545) 
181

>  <qudt_units>  (545) 
http://www.openphacts.org/units/Nanomolar

>  <target_tax_id>  (545) 
9606

>  <bao_label>  (545) 
single protein format

>  <published_units>  (545) 
nM

>  <pchembl_value>  (545) 
6.74

>  <published_type>  (545) 
IC50

>  <activity_comment>  (545) 
None

$$$$

     RDKit          

 35 39  0  0  0  0  0  0  0  0999 V2000
    0.0000    0.0000    0.0000 C   0  0  0  0  0  0  0  0  0  0  0  0
    0.0000    0.0000    0.0000 O   0  0  0  0  0  0  0  0  0  0  0  0
    0.0000    0.0000    0.0000 C   0  0  0  0  0  0  0  0  0  0  0  0
    0.0000    0.0000    0.0000 C   0  0  0  0  0  0  0  0  0  0  0  0
    0.0000    0.0000    0.0000 N   0  0  0  0  0  0  0  0  0  0  0  0
    0.0000    0.0000    0.0000 C   0  0  0  0  0  0  0  0  0  0  0  0
    0.0000    0.0000    0.0000 C   0  0  0  0  0  0  0  0  0  0  0  0
    0.0000    0.0000    0.0000 C   0  0  0  0  0  0  0  0  0  0  0  0
    0.0000    0.0000    0.0000 C   0  0  0  0  0  0  0  0  0  0  0  0
    0.0000    0.0000    0.0000 C   0  0  0  0  0  0  0  0  0  0  0  0
    0.0000    0.0000    0.0000 C   0  0  0  0  0  0  0  0  0  0  0  0
    0.0000    0.0000    0.0000 C   0  0  0  0  0  0  0  0  0  0  0  0
    0.0000    0.0000    0.0000 C   0  0  0  0  0  0  0  0  0  0  0  0
    0.0000    0.0000    0.0000 C   0  0  0  0  0  0  0  0  0  0  0  0
    0.0000    0.0000    0.0000 C   0  0  0  0  0  0  0  0  0  0  0  0
    0.0000    0.0000    0.0000 N   0  0  0  0  0  0  0  0  0  0  0  0
    0.0000    0.0000    0.0000 C   0  0  0  0  0  0  0  0  0  0  0  0
    0.0000    0.0000    0.0000 C   0  0  0  0  0  0  0  0  0  0  0  0
    0.0000    0.0000    0.0000 N   0  0  0  0  0  0  0  0  0  0  0  0
    0.0000    0.0000    0.0000 C   0  0  0  0  0  0  0  0  0  0  0  0
    0.0000    0.0000    0.0000 C   0  0  0  0  0  0  0  0  0  0  0  0
    0.0000    0.0000    0.0000 C   0  0  0  0  0  0  0  0  0  0  0  0
    0.0000    0.0000    0.0000 C   0  0  0  0  0  0  0  0  0  0  0  0
    0.0000    0.0000    0.0000 C   0  0  0  0  0  0  0  0  0  0  0  0
    0.0000    0.0000    0.0000 C   0  0  0  0  0  0  0  0  0  0  0  0
    0.0000    0.0000    0.0000 C   0  0  0  0  0  0  0  0  0  0  0  0
    0.0000    0.0000    0.0000 C   0  0  0  0  0  0  0  0  0  0  0  0
    0.0000    0.0000    0.0000 C   0  0  0  0  0  0  0  0  0  0  0  0
    0.0000    0.0000    0.0000 O   0  0  0  0  0  0  0  0  0  0  0  0
    0.0000    0.0000    0.0000 C   0  0  0  0  0  0  0  0  0  0  0  0
    0.0000    0.0000    0.0000 S   0  0  0  0  0  0  0  0  0  0  0  0
    0.0000    0.0000    0.0000 C   0  0  0  0  0  0  0  0  0  0  0  0
    0.0000    0.0000    0.0000 C   0  0  0  0  0  0  0  0  0  0  0  0
    0.0000    0.0000    0.0000 C   0  0  0  0  0  0  0  0  0  0  0  0
    0.0000    0.0000    0.0000 Cl  0  0  0  0  0  0  0  0  0  0  0  0
  1  2  1  0
  2  3  1  0
  3  4  1  0
  4  5  1  0
  5  6  1  0
  6  7  1  0
  7  8  1  0
  8  9  2  0
  9 10  1  0
 10 11  2  0
 11 12  1  0
 12 13  2  0
 13 14  1  0
 14 15  2  0
  7 16  1  0
 16 17  1  0
 17 18  1  0
 18 19  1  0
 19 20  1  0
 20 21  1  0
 19 22  1  0
 22 23  2  0
 23 24  1  0
 24 25  2  0
 25 26  1  0
 26 27  2  0
  5 28  1  0
 28 29  2  0
 28 30  1  0
 30 31  1  0
 31 32  1  0
 32 33  2  0
 33 34  1  0
 34 35  1  0
 15  6  1  0
 15 10  1  0
 21 16  1  0
 27 22  1  0
 34 30  2  0
M  END
>  <pIC50>  (546) 
7.0

>  <ChEMBL_ID>  (546) 
CHEMBL460631

>  <document_journal>  (546) 
Bioorg. Med. Chem. Lett.

>  <bao_endpoint>  (546) 
BAO_0000190

>  <potential_duplicate>  (546) 
False

>  <uo_units>  (546) 
UO_0000065

>  <canonical_smiles>  (546) 
COCCN(C1C(C=Cc2ccccc12)N3CCN(CC3)c4ccccc4)C(=O)c5sccc5Cl

>  <parent_molecule_chembl_id>  (546) 
CHEMBL460631

>  <assay_type>  (546) 
B

>  <src_id>  (546) 
1

>  <ligand_efficiency>  (546) 
{u'le': u'0.27', u'bei': u'13.78', u'sei': u'10.89', u'lle': u'1.64'}

>  <standard_flag>  (546) 
True

>  <molecule_chembl_id>  (546) 
CHEMBL460631

>  <target_organism>  (546) 
Homo sapiens

>  <standard_units>  (546) 
nM

>  <record_id>  (546) 
806016

>  <document_chembl_id>  (546) 
CHEMBL1152717

>  <bao_format>  (546) 
BAO_0000357

>  <data_validity_description>  (546) 
None

>  <activity_id>  (546) 
2607450

>  <standard_type>  (546) 
IC50

>  <target_chembl_id>  (546) 
CHEMBL233

>  <data_validity_comment>  (546) 
None

>  <published_value>  (546) 
100

>  <document_year>  (546) 
2009

>  <target_pref_name>  (546) 
Mu opioid receptor

>  <assay_chembl_id>  (546) 
CHEMBL1030679

>  <standard_relation>  (546) 
=

>  <assay_description>  (546) 
Displacement of [125I]FK33824 from human cloned mu opioid receptor

>  <published_relation>  (546) 
=

>  <standard_value>  (546) 
100

>  <qudt_units>  (546) 
http://www.openphacts.org/units/Nanomolar

>  <target_tax_id>  (546) 
9606

>  <bao_label>  (546) 
single protein format

>  <published_units>  (546) 
nM

>  <pchembl_value>  (546) 
7

>  <published_type>  (546) 
IC50

>  <activity_comment>  (546) 
None

$$$$

     RDKit          

 35 39  0  0  0  0  0  0  0  0999 V2000
    0.0000    0.0000    0.0000 C   0  0  0  0  0  0  0  0  0  0  0  0
    0.0000    0.0000    0.0000 O   0  0  0  0  0  0  0  0  0  0  0  0
    0.0000    0.0000    0.0000 C   0  0  0  0  0  0  0  0  0  0  0  0
    0.0000    0.0000    0.0000 C   0  0  0  0  0  0  0  0  0  0  0  0
    0.0000    0.0000    0.0000 N   0  0  0  0  0  0  0  0  0  0  0  0
    0.0000    0.0000    0.0000 C   0  0  0  0  0  0  0  0  0  0  0  0
    0.0000    0.0000    0.0000 C   0  0  0  0  0  0  0  0  0  0  0  0
    0.0000    0.0000    0.0000 C   0  0  0  0  0  0  0  0  0  0  0  0
    0.0000    0.0000    0.0000 C   0  0  0  0  0  0  0  0  0  0  0  0
    0.0000    0.0000    0.0000 C   0  0  0  0  0  0  0  0  0  0  0  0
    0.0000    0.0000    0.0000 C   0  0  0  0  0  0  0  0  0  0  0  0
    0.0000    0.0000    0.0000 C   0  0  0  0  0  0  0  0  0  0  0  0
    0.0000    0.0000    0.0000 C   0  0  0  0  0  0  0  0  0  0  0  0
    0.0000    0.0000    0.0000 C   0  0  0  0  0  0  0  0  0  0  0  0
    0.0000    0.0000    0.0000 C   0  0  0  0  0  0  0  0  0  0  0  0
    0.0000    0.0000    0.0000 N   0  0  0  0  0  0  0  0  0  0  0  0
    0.0000    0.0000    0.0000 C   0  0  0  0  0  0  0  0  0  0  0  0
    0.0000    0.0000    0.0000 C   0  0  0  0  0  0  0  0  0  0  0  0
    0.0000    0.0000    0.0000 N   0  0  0  0  0  0  0  0  0  0  0  0
    0.0000    0.0000    0.0000 C   0  0  0  0  0  0  0  0  0  0  0  0
    0.0000    0.0000    0.0000 C   0  0  0  0  0  0  0  0  0  0  0  0
    0.0000    0.0000    0.0000 C   0  0  0  0  0  0  0  0  0  0  0  0
    0.0000    0.0000    0.0000 C   0  0  0  0  0  0  0  0  0  0  0  0
    0.0000    0.0000    0.0000 C   0  0  0  0  0  0  0  0  0  0  0  0
    0.0000    0.0000    0.0000 C   0  0  0  0  0  0  0  0  0  0  0  0
    0.0000    0.0000    0.0000 C   0  0  0  0  0  0  0  0  0  0  0  0
    0.0000    0.0000    0.0000 C   0  0  0  0  0  0  0  0  0  0  0  0
    0.0000    0.0000    0.0000 C   0  0  0  0  0  0  0  0  0  0  0  0
    0.0000    0.0000    0.0000 O   0  0  0  0  0  0  0  0  0  0  0  0
    0.0000    0.0000    0.0000 C   0  0  0  0  0  0  0  0  0  0  0  0
    0.0000    0.0000    0.0000 S   0  0  0  0  0  0  0  0  0  0  0  0
    0.0000    0.0000    0.0000 C   0  0  0  0  0  0  0  0  0  0  0  0
    0.0000    0.0000    0.0000 C   0  0  0  0  0  0  0  0  0  0  0  0
    0.0000    0.0000    0.0000 C   0  0  0  0  0  0  0  0  0  0  0  0
    0.0000    0.0000    0.0000 Cl  0  0  0  0  0  0  0  0  0  0  0  0
  1  2  1  0
  2  3  1  0
  3  4  1  0
  4  5  1  0
  5  6  1  0
  6  7  1  0
  7  8  1  0
  8  9  2  0
  9 10  1  0
 10 11  2  0
 11 12  1  0
 12 13  2  0
 13 14  1  0
 14 15  2  0
  7 16  1  0
 16 17  1  0
 17 18  1  0
 18 19  1  0
 19 20  1  0
 20 21  1  0
 19 22  1  0
 22 23  2  0
 23 24  1  0
 24 25  2  0
 25 26  1  0
 26 27  2  0
  5 28  1  0
 28 29  2  0
 28 30  1  0
 30 31  1  0
 31 32  1  0
 32 33  2  0
 33 34  1  0
 34 35  1  0
 15  6  1  0
 15 10  1  0
 21 16  1  0
 27 22  1  0
 34 30  2  0
M  END
>  <pIC50>  (547) 
7.24

>  <ChEMBL_ID>  (547) 
CHEMBL461050

>  <document_journal>  (547) 
Bioorg. Med. Chem. Lett.

>  <bao_endpoint>  (547) 
BAO_0000190

>  <potential_duplicate>  (547) 
False

>  <uo_units>  (547) 
UO_0000065

>  <canonical_smiles>  (547) 
COCCN([C@H]1[C@@H](C=Cc2ccccc12)N3CCN(CC3)c4ccccc4)C(=O)c5sccc5Cl

>  <parent_molecule_chembl_id>  (547) 
CHEMBL461050

>  <assay_type>  (547) 
B

>  <src_id>  (547) 
1

>  <ligand_efficiency>  (547) 
{u'le': u'0.28', u'bei': u'14.24', u'sei': u'11.26', u'lle': u'1.88'}

>  <standard_flag>  (547) 
True

>  <molecule_chembl_id>  (547) 
CHEMBL461050

>  <target_organism>  (547) 
Homo sapiens

>  <standard_units>  (547) 
nM

>  <record_id>  (547) 
806017

>  <document_chembl_id>  (547) 
CHEMBL1152717

>  <bao_format>  (547) 
BAO_0000357

>  <data_validity_description>  (547) 
None

>  <activity_id>  (547) 
2607451

>  <standard_type>  (547) 
IC50

>  <target_chembl_id>  (547) 
CHEMBL233

>  <data_validity_comment>  (547) 
None

>  <published_value>  (547) 
58

>  <document_year>  (547) 
2009

>  <target_pref_name>  (547) 
Mu opioid receptor

>  <assay_chembl_id>  (547) 
CHEMBL1030679

>  <standard_relation>  (547) 
=

>  <assay_description>  (547) 
Displacement of [125I]FK33824 from human cloned mu opioid receptor

>  <published_relation>  (547) 
=

>  <standard_value>  (547) 
58

>  <qudt_units>  (547) 
http://www.openphacts.org/units/Nanomolar

>  <target_tax_id>  (547) 
9606

>  <bao_label>  (547) 
single protein format

>  <published_units>  (547) 
nM

>  <pchembl_value>  (547) 
7.24

>  <published_type>  (547) 
IC50

>  <activity_comment>  (547) 
None

$$$$

     RDKit          

 33 35  0  0  0  0  0  0  0  0999 V2000
    0.0000    0.0000    0.0000 C   0  0  0  0  0  0  0  0  0  0  0  0
    0.0000    0.0000    0.0000 O   0  0  0  0  0  0  0  0  0  0  0  0
    0.0000    0.0000    0.0000 C   0  0  0  0  0  0  0  0  0  0  0  0
    0.0000    0.0000    0.0000 C   0  0  0  0  0  0  0  0  0  0  0  0
    0.0000    0.0000    0.0000 N   0  0  0  0  0  0  0  0  0  0  0  0
    0.0000    0.0000    0.0000 C   0  0  0  0  0  0  0  0  0  0  0  0
    0.0000    0.0000    0.0000 C   0  0  0  0  0  0  0  0  0  0  0  0
    0.0000    0.0000    0.0000 C   0  0  0  0  0  0  0  0  0  0  0  0
    0.0000    0.0000    0.0000 C   0  0  0  0  0  0  0  0  0  0  0  0
    0.0000    0.0000    0.0000 C   0  0  0  0  0  0  0  0  0  0  0  0
    0.0000    0.0000    0.0000 C   0  0  0  0  0  0  0  0  0  0  0  0
    0.0000    0.0000    0.0000 C   0  0  0  0  0  0  0  0  0  0  0  0
    0.0000    0.0000    0.0000 O   0  0  0  0  0  0  0  0  0  0  0  0
    0.0000    0.0000    0.0000 C   0  0  0  0  0  0  0  0  0  0  0  0
    0.0000    0.0000    0.0000 C   0  0  0  0  0  0  0  0  0  0  0  0
    0.0000    0.0000    0.0000 O   0  0  0  0  0  0  0  0  0  0  0  0
    0.0000    0.0000    0.0000 C   0  0  0  0  0  0  0  0  0  0  0  0
    0.0000    0.0000    0.0000 C   0  0  0  0  0  0  0  0  0  0  0  0
    0.0000    0.0000    0.0000 C   0  0  0  0  0  0  0  0  0  0  0  0
    0.0000    0.0000    0.0000 N   0  0  0  0  0  0  0  0  0  0  0  0
    0.0000    0.0000    0.0000 C   0  0  0  0  0  0  0  0  0  0  0  0
    0.0000    0.0000    0.0000 C   0  0  0  0  0  0  0  0  0  0  0  0
    0.0000    0.0000    0.0000 C   0  0  0  0  0  0  0  0  0  0  0  0
    0.0000    0.0000    0.0000 O   0  0  0  0  0  0  0  0  0  0  0  0
    0.0000    0.0000    0.0000 C   0  0  0  0  0  0  0  0  0  0  0  0
    0.0000    0.0000    0.0000 O   0  0  0  0  0  0  0  0  0  0  0  0
    0.0000    0.0000    0.0000 C   0  0  0  0  0  0  0  0  0  0  0  0
    0.0000    0.0000    0.0000 C   0  0  0  0  0  0  0  0  0  0  0  0
    0.0000    0.0000    0.0000 C   0  0  0  0  0  0  0  0  0  0  0  0
    0.0000    0.0000    0.0000 C   0  0  0  0  0  0  0  0  0  0  0  0
    0.0000    0.0000    0.0000 Cl  0  0  0  0  0  0  0  0  0  0  0  0
    0.0000    0.0000    0.0000 C   0  0  0  0  0  0  0  0  0  0  0  0
    0.0000    0.0000    0.0000 C   0  0  0  0  0  0  0  0  0  0  0  0
  1  2  1  0
  2  3  1  0
  3  4  1  0
  4  5  1  0
  5  6  1  0
  6  7  1  0
  7  8  1  0
  8  9  1  0
  9 10  1  0
 10 11  2  0
 11 12  1  0
 12 13  1  0
 13 14  1  0
 12 15  2  0
 15 16  1  0
 16 17  1  0
 15 18  1  0
 18 19  2  0
  7 20  1  0
 20 21  1  0
 20 22  1  0
  5 23  1  0
 23 24  2  0
 23 25  1  0
 25 26  1  0
 26 27  1  0
 27 28  2  0
 28 29  1  0
 29 30  2  0
 30 31  1  0
 30 32  1  0
 32 33  2  0
 19  6  1  0
 19 10  1  0
 33 27  1  0
M  END
>  <pIC50>  (548) 
6.61

>  <ChEMBL_ID>  (548) 
CHEMBL461257

>  <document_journal>  (548) 
Bioorg. Med. Chem. Lett.

>  <bao_endpoint>  (548) 
BAO_0000190

>  <potential_duplicate>  (548) 
False

>  <uo_units>  (548) 
UO_0000065

>  <canonical_smiles>  (548) 
COCCN(C1C(CCc2cc(OC)c(OC)cc12)N(C)C)C(=O)COc3ccc(Cl)cc3

>  <parent_molecule_chembl_id>  (548) 
CHEMBL461257

>  <assay_type>  (548) 
B

>  <src_id>  (548) 
1

>  <ligand_efficiency>  (548) 
{u'le': u'0.27', u'bei': u'13.86', u'sei': u'10.93', u'lle': u'2.72'}

>  <standard_flag>  (548) 
True

>  <molecule_chembl_id>  (548) 
CHEMBL461257

>  <target_organism>  (548) 
Homo sapiens

>  <standard_units>  (548) 
nM

>  <record_id>  (548) 
806018

>  <document_chembl_id>  (548) 
CHEMBL1152717

>  <bao_format>  (548) 
BAO_0000357

>  <data_validity_description>  (548) 
None

>  <activity_id>  (548) 
2607452

>  <standard_type>  (548) 
IC50

>  <target_chembl_id>  (548) 
CHEMBL233

>  <data_validity_comment>  (548) 
None

>  <published_value>  (548) 
245

>  <document_year>  (548) 
2009

>  <target_pref_name>  (548) 
Mu opioid receptor

>  <assay_chembl_id>  (548) 
CHEMBL1030679

>  <standard_relation>  (548) 
=

>  <assay_description>  (548) 
Displacement of [125I]FK33824 from human cloned mu opioid receptor

>  <published_relation>  (548) 
=

>  <standard_value>  (548) 
245

>  <qudt_units>  (548) 
http://www.openphacts.org/units/Nanomolar

>  <target_tax_id>  (548) 
9606

>  <bao_label>  (548) 
single protein format

>  <published_units>  (548) 
nM

>  <pchembl_value>  (548) 
6.61

>  <published_type>  (548) 
IC50

>  <activity_comment>  (548) 
None

$$$$

     RDKit          

 32 34  0  0  0  0  0  0  0  0999 V2000
    0.0000    0.0000    0.0000 C   0  0  0  0  0  0  0  0  0  0  0  0
    0.0000    0.0000    0.0000 O   0  0  0  0  0  0  0  0  0  0  0  0
    0.0000    0.0000    0.0000 C   0  0  0  0  0  0  0  0  0  0  0  0
    0.0000    0.0000    0.0000 C   0  0  0  0  0  0  0  0  0  0  0  0
    0.0000    0.0000    0.0000 N   0  0  0  0  0  0  0  0  0  0  0  0
    0.0000    0.0000    0.0000 C   0  0  0  0  0  0  0  0  0  0  0  0
    0.0000    0.0000    0.0000 C   0  0  0  0  0  0  0  0  0  0  0  0
    0.0000    0.0000    0.0000 C   0  0  0  0  0  0  0  0  0  0  0  0
    0.0000    0.0000    0.0000 C   0  0  0  0  0  0  0  0  0  0  0  0
    0.0000    0.0000    0.0000 C   0  0  0  0  0  0  0  0  0  0  0  0
    0.0000    0.0000    0.0000 C   0  0  0  0  0  0  0  0  0  0  0  0
    0.0000    0.0000    0.0000 C   0  0  0  0  0  0  0  0  0  0  0  0
    0.0000    0.0000    0.0000 O   0  0  0  0  0  0  0  0  0  0  0  0
    0.0000    0.0000    0.0000 C   0  0  0  0  0  0  0  0  0  0  0  0
    0.0000    0.0000    0.0000 C   0  0  0  0  0  0  0  0  0  0  0  0
    0.0000    0.0000    0.0000 O   0  0  0  0  0  0  0  0  0  0  0  0
    0.0000    0.0000    0.0000 C   0  0  0  0  0  0  0  0  0  0  0  0
    0.0000    0.0000    0.0000 C   0  0  0  0  0  0  0  0  0  0  0  0
    0.0000    0.0000    0.0000 C   0  0  0  0  0  0  0  0  0  0  0  0
    0.0000    0.0000    0.0000 N   0  0  0  0  0  0  0  0  0  0  0  0
    0.0000    0.0000    0.0000 C   0  0  0  0  0  0  0  0  0  0  0  0
    0.0000    0.0000    0.0000 C   0  0  0  0  0  0  0  0  0  0  0  0
    0.0000    0.0000    0.0000 C   0  0  0  0  0  0  0  0  0  0  0  0
    0.0000    0.0000    0.0000 O   0  0  0  0  0  0  0  0  0  0  0  0
    0.0000    0.0000    0.0000 C   0  0  0  0  0  0  0  0  0  0  0  0
    0.0000    0.0000    0.0000 C   0  0  0  0  0  0  0  0  0  0  0  0
    0.0000    0.0000    0.0000 C   0  0  0  0  0  0  0  0  0  0  0  0
    0.0000    0.0000    0.0000 C   0  0  0  0  0  0  0  0  0  0  0  0
    0.0000    0.0000    0.0000 Cl  0  0  0  0  0  0  0  0  0  0  0  0
    0.0000    0.0000    0.0000 C   0  0  0  0  0  0  0  0  0  0  0  0
    0.0000    0.0000    0.0000 Cl  0  0  0  0  0  0  0  0  0  0  0  0
    0.0000    0.0000    0.0000 C   0  0  0  0  0  0  0  0  0  0  0  0
  1  2  1  0
  2  3  1  0
  3  4  1  0
  4  5  1  0
  5  6  1  0
  6  7  1  0
  7  8  1  0
  8  9  1  0
  9 10  1  0
 10 11  2  0
 11 12  1  0
 12 13  1  0
 13 14  1  0
 12 15  2  0
 15 16  1  0
 16 17  1  0
 15 18  1  0
 18 19  2  0
  7 20  1  0
 20 21  1  0
 20 22  1  0
  5 23  1  0
 23 24  2  0
 23 25  1  0
 25 26  2  0
 26 27  1  0
 27 28  2  0
 28 29  1  0
 28 30  1  0
 30 31  1  0
 30 32  2  0
 19  6  1  0
 19 10  1  0
 32 25  1  0
M  END
>  <pIC50>  (549) 
6.46

>  <ChEMBL_ID>  (549) 
CHEMBL461258

>  <document_journal>  (549) 
Bioorg. Med. Chem. Lett.

>  <bao_endpoint>  (549) 
BAO_0000190

>  <potential_duplicate>  (549) 
False

>  <uo_units>  (549) 
UO_0000065

>  <canonical_smiles>  (549) 
COCCN(C1C(CCc2cc(OC)c(OC)cc12)N(C)C)C(=O)c3ccc(Cl)c(Cl)c3

>  <parent_molecule_chembl_id>  (549) 
CHEMBL461258

>  <assay_type>  (549) 
B

>  <src_id>  (549) 
1

>  <ligand_efficiency>  (549) 
{u'le': u'0.28', u'bei': u'13.41', u'sei': u'12.6', u'lle': u'1.73'}

>  <standard_flag>  (549) 
True

>  <molecule_chembl_id>  (549) 
CHEMBL461258

>  <target_organism>  (549) 
Homo sapiens

>  <standard_units>  (549) 
nM

>  <record_id>  (549) 
806019

>  <document_chembl_id>  (549) 
CHEMBL1152717

>  <bao_format>  (549) 
BAO_0000357

>  <data_validity_description>  (549) 
None

>  <activity_id>  (549) 
2607453

>  <standard_type>  (549) 
IC50

>  <target_chembl_id>  (549) 
CHEMBL233

>  <data_validity_comment>  (549) 
None

>  <published_value>  (549) 
351

>  <document_year>  (549) 
2009

>  <target_pref_name>  (549) 
Mu opioid receptor

>  <assay_chembl_id>  (549) 
CHEMBL1030679

>  <standard_relation>  (549) 
=

>  <assay_description>  (549) 
Displacement of [125I]FK33824 from human cloned mu opioid receptor

>  <published_relation>  (549) 
=

>  <standard_value>  (549) 
351

>  <qudt_units>  (549) 
http://www.openphacts.org/units/Nanomolar

>  <target_tax_id>  (549) 
9606

>  <bao_label>  (549) 
single protein format

>  <published_units>  (549) 
nM

>  <pchembl_value>  (549) 
6.46

>  <published_type>  (549) 
IC50

>  <activity_comment>  (549) 
None

$$$$

     RDKit          

 32 34  0  0  0  0  0  0  0  0999 V2000
    0.0000    0.0000    0.0000 C   0  0  0  0  0  0  0  0  0  0  0  0
    0.0000    0.0000    0.0000 O   0  0  0  0  0  0  0  0  0  0  0  0
    0.0000    0.0000    0.0000 C   0  0  0  0  0  0  0  0  0  0  0  0
    0.0000    0.0000    0.0000 C   0  0  0  0  0  0  0  0  0  0  0  0
    0.0000    0.0000    0.0000 N   0  0  0  0  0  0  0  0  0  0  0  0
    0.0000    0.0000    0.0000 C   0  0  0  0  0  0  0  0  0  0  0  0
    0.0000    0.0000    0.0000 C   0  0  0  0  0  0  0  0  0  0  0  0
    0.0000    0.0000    0.0000 C   0  0  0  0  0  0  0  0  0  0  0  0
    0.0000    0.0000    0.0000 C   0  0  0  0  0  0  0  0  0  0  0  0
    0.0000    0.0000    0.0000 C   0  0  0  0  0  0  0  0  0  0  0  0
    0.0000    0.0000    0.0000 C   0  0  0  0  0  0  0  0  0  0  0  0
    0.0000    0.0000    0.0000 C   0  0  0  0  0  0  0  0  0  0  0  0
    0.0000    0.0000    0.0000 O   0  0  0  0  0  0  0  0  0  0  0  0
    0.0000    0.0000    0.0000 C   0  0  0  0  0  0  0  0  0  0  0  0
    0.0000    0.0000    0.0000 C   0  0  0  0  0  0  0  0  0  0  0  0
    0.0000    0.0000    0.0000 O   0  0  0  0  0  0  0  0  0  0  0  0
    0.0000    0.0000    0.0000 C   0  0  0  0  0  0  0  0  0  0  0  0
    0.0000    0.0000    0.0000 C   0  0  0  0  0  0  0  0  0  0  0  0
    0.0000    0.0000    0.0000 C   0  0  0  0  0  0  0  0  0  0  0  0
    0.0000    0.0000    0.0000 N   0  0  0  0  0  0  0  0  0  0  0  0
    0.0000    0.0000    0.0000 C   0  0  0  0  0  0  0  0  0  0  0  0
    0.0000    0.0000    0.0000 C   0  0  0  0  0  0  0  0  0  0  0  0
    0.0000    0.0000    0.0000 C   0  0  0  0  0  0  0  0  0  0  0  0
    0.0000    0.0000    0.0000 O   0  0  0  0  0  0  0  0  0  0  0  0
    0.0000    0.0000    0.0000 C   0  0  0  0  0  0  0  0  0  0  0  0
    0.0000    0.0000    0.0000 C   0  0  0  0  0  0  0  0  0  0  0  0
    0.0000    0.0000    0.0000 C   0  0  0  0  0  0  0  0  0  0  0  0
    0.0000    0.0000    0.0000 C   0  0  0  0  0  0  0  0  0  0  0  0
    0.0000    0.0000    0.0000 C   0  0  0  0  0  0  0  0  0  0  0  0
    0.0000    0.0000    0.0000 Cl  0  0  0  0  0  0  0  0  0  0  0  0
    0.0000    0.0000    0.0000 C   0  0  0  0  0  0  0  0  0  0  0  0
    0.0000    0.0000    0.0000 C   0  0  0  0  0  0  0  0  0  0  0  0
  1  2  1  0
  2  3  1  0
  3  4  1  0
  4  5  1  0
  5  6  1  0
  6  7  1  0
  7  8  1  0
  8  9  1  0
  9 10  1  0
 10 11  2  0
 11 12  1  0
 12 13  1  0
 13 14  1  0
 12 15  2  0
 15 16  1  0
 16 17  1  0
 15 18  1  0
 18 19  2  0
  7 20  1  0
 20 21  1  0
 20 22  1  0
  5 23  1  0
 23 24  2  0
 23 25  1  0
 25 26  1  0
 26 27  2  0
 27 28  1  0
 28 29  2  0
 29 30  1  0
 29 31  1  0
 31 32  2  0
 19  6  1  0
 19 10  1  0
 32 26  1  0
M  END
>  <pIC50>  (550) 
5.95

>  <ChEMBL_ID>  (550) 
CHEMBL459387

>  <document_journal>  (550) 
Bioorg. Med. Chem. Lett.

>  <bao_endpoint>  (550) 
BAO_0000190

>  <potential_duplicate>  (550) 
False

>  <uo_units>  (550) 
UO_0000065

>  <canonical_smiles>  (550) 
COCCN(C1C(CCc2cc(OC)c(OC)cc12)N(C)C)C(=O)Cc3ccc(Cl)cc3

>  <parent_molecule_chembl_id>  (550) 
CHEMBL459387

>  <assay_type>  (550) 
B

>  <src_id>  (550) 
1

>  <ligand_efficiency>  (550) 
{u'le': u'0.25', u'bei': u'12.91', u'sei': u'11.61', u'lle': u'1.86'}

>  <standard_flag>  (550) 
True

>  <molecule_chembl_id>  (550) 
CHEMBL459387

>  <target_organism>  (550) 
Homo sapiens

>  <standard_units>  (550) 
nM

>  <record_id>  (550) 
806127

>  <document_chembl_id>  (550) 
CHEMBL1152717

>  <bao_format>  (550) 
BAO_0000357

>  <data_validity_description>  (550) 
None

>  <activity_id>  (550) 
2607454

>  <standard_type>  (550) 
IC50

>  <target_chembl_id>  (550) 
CHEMBL233

>  <data_validity_comment>  (550) 
None

>  <published_value>  (550) 
1122

>  <document_year>  (550) 
2009

>  <target_pref_name>  (550) 
Mu opioid receptor

>  <assay_chembl_id>  (550) 
CHEMBL1030679

>  <standard_relation>  (550) 
=

>  <assay_description>  (550) 
Displacement of [125I]FK33824 from human cloned mu opioid receptor

>  <published_relation>  (550) 
=

>  <standard_value>  (550) 
1122

>  <qudt_units>  (550) 
http://www.openphacts.org/units/Nanomolar

>  <target_tax_id>  (550) 
9606

>  <bao_label>  (550) 
single protein format

>  <published_units>  (550) 
nM

>  <pchembl_value>  (550) 
5.95

>  <published_type>  (550) 
IC50

>  <activity_comment>  (550) 
None

$$$$

     RDKit          

 32 34  0  0  0  0  0  0  0  0999 V2000
    0.0000    0.0000    0.0000 C   0  0  0  0  0  0  0  0  0  0  0  0
    0.0000    0.0000    0.0000 O   0  0  0  0  0  0  0  0  0  0  0  0
    0.0000    0.0000    0.0000 C   0  0  0  0  0  0  0  0  0  0  0  0
    0.0000    0.0000    0.0000 C   0  0  0  0  0  0  0  0  0  0  0  0
    0.0000    0.0000    0.0000 N   0  0  0  0  0  0  0  0  0  0  0  0
    0.0000    0.0000    0.0000 C   0  0  0  0  0  0  0  0  0  0  0  0
    0.0000    0.0000    0.0000 C   0  0  0  0  0  0  0  0  0  0  0  0
    0.0000    0.0000    0.0000 C   0  0  0  0  0  0  0  0  0  0  0  0
    0.0000    0.0000    0.0000 C   0  0  0  0  0  0  0  0  0  0  0  0
    0.0000    0.0000    0.0000 C   0  0  0  0  0  0  0  0  0  0  0  0
    0.0000    0.0000    0.0000 C   0  0  0  0  0  0  0  0  0  0  0  0
    0.0000    0.0000    0.0000 C   0  0  0  0  0  0  0  0  0  0  0  0
    0.0000    0.0000    0.0000 O   0  0  0  0  0  0  0  0  0  0  0  0
    0.0000    0.0000    0.0000 C   0  0  0  0  0  0  0  0  0  0  0  0
    0.0000    0.0000    0.0000 C   0  0  0  0  0  0  0  0  0  0  0  0
    0.0000    0.0000    0.0000 O   0  0  0  0  0  0  0  0  0  0  0  0
    0.0000    0.0000    0.0000 C   0  0  0  0  0  0  0  0  0  0  0  0
    0.0000    0.0000    0.0000 C   0  0  0  0  0  0  0  0  0  0  0  0
    0.0000    0.0000    0.0000 C   0  0  0  0  0  0  0  0  0  0  0  0
    0.0000    0.0000    0.0000 N   0  0  0  0  0  0  0  0  0  0  0  0
    0.0000    0.0000    0.0000 C   0  0  0  0  0  0  0  0  0  0  0  0
    0.0000    0.0000    0.0000 C   0  0  0  0  0  0  0  0  0  0  0  0
    0.0000    0.0000    0.0000 C   0  0  0  0  0  0  0  0  0  0  0  0
    0.0000    0.0000    0.0000 O   0  0  0  0  0  0  0  0  0  0  0  0
    0.0000    0.0000    0.0000 C   0  0  0  0  0  0  0  0  0  0  0  0
    0.0000    0.0000    0.0000 C   0  0  0  0  0  0  0  0  0  0  0  0
    0.0000    0.0000    0.0000 C   0  0  0  0  0  0  0  0  0  0  0  0
    0.0000    0.0000    0.0000 C   0  0  0  0  0  0  0  0  0  0  0  0
    0.0000    0.0000    0.0000 C   0  0  0  0  0  0  0  0  0  0  0  0
    0.0000    0.0000    0.0000 C   0  0  0  0  0  0  0  0  0  0  0  0
    0.0000    0.0000    0.0000 C   0  0  0  0  0  0  0  0  0  0  0  0
    0.0000    0.0000    0.0000 Br  0  0  0  0  0  0  0  0  0  0  0  0
  1  2  1  0
  2  3  1  0
  3  4  1  0
  4  5  1  0
  5  6  1  0
  6  7  1  0
  7  8  1  0
  8  9  1  0
  9 10  1  0
 10 11  2  0
 11 12  1  0
 12 13  1  0
 13 14  1  0
 12 15  2  0
 15 16  1  0
 16 17  1  0
 15 18  1  0
 18 19  2  0
  7 20  1  0
 20 21  1  0
 20 22  1  0
  5 23  1  0
 23 24  2  0
 23 25  1  0
 25 26  1  0
 26 27  2  0
 27 28  1  0
 28 29  2  0
 29 30  1  0
 30 31  2  0
 31 32  1  0
 19  6  1  0
 19 10  1  0
 31 26  1  0
M  END
>  <pIC50>  (551) 
5.32

>  <ChEMBL_ID>  (551) 
CHEMBL459388

>  <document_journal>  (551) 
Bioorg. Med. Chem. Lett.

>  <bao_endpoint>  (551) 
BAO_0000190

>  <potential_duplicate>  (551) 
False

>  <uo_units>  (551) 
UO_0000065

>  <canonical_smiles>  (551) 
COCCN(C1C(CCc2cc(OC)c(OC)cc12)N(C)C)C(=O)Cc3ccccc3Br

>  <parent_molecule_chembl_id>  (551) 
CHEMBL459388

>  <assay_type>  (551) 
B

>  <src_id>  (551) 
1

>  <ligand_efficiency>  (551) 
{u'le': u'0.23', u'bei': u'10.52', u'sei': u'10.38', u'lle': u'1.15'}

>  <standard_flag>  (551) 
True

>  <molecule_chembl_id>  (551) 
CHEMBL459388

>  <target_organism>  (551) 
Homo sapiens

>  <standard_units>  (551) 
nM

>  <record_id>  (551) 
806128

>  <document_chembl_id>  (551) 
CHEMBL1152717

>  <bao_format>  (551) 
BAO_0000357

>  <data_validity_description>  (551) 
None

>  <activity_id>  (551) 
2607455

>  <standard_type>  (551) 
IC50

>  <target_chembl_id>  (551) 
CHEMBL233

>  <data_validity_comment>  (551) 
None

>  <published_value>  (551) 
4828

>  <document_year>  (551) 
2009

>  <target_pref_name>  (551) 
Mu opioid receptor

>  <assay_chembl_id>  (551) 
CHEMBL1030679

>  <standard_relation>  (551) 
=

>  <assay_description>  (551) 
Displacement of [125I]FK33824 from human cloned mu opioid receptor

>  <published_relation>  (551) 
=

>  <standard_value>  (551) 
4828

>  <qudt_units>  (551) 
http://www.openphacts.org/units/Nanomolar

>  <target_tax_id>  (551) 
9606

>  <bao_label>  (551) 
single protein format

>  <published_units>  (551) 
nM

>  <pchembl_value>  (551) 
5.32

>  <published_type>  (551) 
IC50

>  <activity_comment>  (551) 
None

$$$$

     RDKit          

 20 22  0  0  0  0  0  0  0  0999 V2000
    0.0000    0.0000    0.0000 C   0  0  0  0  0  0  0  0  0  0  0  0
    0.0000    0.0000    0.0000 O   0  0  0  0  0  0  0  0  0  0  0  0
    0.0000    0.0000    0.0000 C   0  0  0  0  0  0  0  0  0  0  0  0
    0.0000    0.0000    0.0000 C   0  0  0  0  0  0  0  0  0  0  0  0
    0.0000    0.0000    0.0000 N   0  0  0  0  0  0  0  0  0  0  0  0
    0.0000    0.0000    0.0000 C   0  0  0  0  0  0  0  0  0  0  0  0
    0.0000    0.0000    0.0000 C   0  0  0  0  0  0  0  0  0  0  0  0
    0.0000    0.0000    0.0000 C   0  0  0  0  0  0  0  0  0  0  0  0
    0.0000    0.0000    0.0000 C   0  0  0  0  0  0  0  0  0  0  0  0
    0.0000    0.0000    0.0000 C   0  0  0  0  0  0  0  0  0  0  0  0
    0.0000    0.0000    0.0000 C   0  0  0  0  0  0  0  0  0  0  0  0
    0.0000    0.0000    0.0000 C   0  0  0  0  0  0  0  0  0  0  0  0
    0.0000    0.0000    0.0000 C   0  0  0  0  0  0  0  0  0  0  0  0
    0.0000    0.0000    0.0000 C   0  0  0  0  0  0  0  0  0  0  0  0
    0.0000    0.0000    0.0000 C   0  0  0  0  0  0  0  0  0  0  0  0
    0.0000    0.0000    0.0000 C   0  0  0  0  0  0  0  0  0  0  0  0
    0.0000    0.0000    0.0000 C   0  0  0  0  0  0  0  0  0  0  0  0
    0.0000    0.0000    0.0000 C   0  0  0  0  0  0  0  0  0  0  0  0
    0.0000    0.0000    0.0000 S   0  0  0  0  0  0  0  0  0  0  0  0
    0.0000    0.0000    0.0000 C   0  0  0  0  0  0  0  0  0  0  0  0
  1  2  1  0
  2  3  1  0
  3  4  1  0
  4  5  1  0
  5  6  1  0
  6  7  1  0
  7  8  1  0
  8  9  1  0
  9 10  1  0
 10 11  2  0
 11 12  1  0
 12 13  2  0
 13 14  1  0
 14 15  2  0
  7 16  1  0
 16 17  1  0
 17 18  2  0
 18 19  1  0
 19 20  1  0
 15  6  1  0
 15 10  1  0
 20 16  2  0
M  END
>  <pIC50>  (552) 
6.11

>  <ChEMBL_ID>  (552) 
CHEMBL457247

>  <document_journal>  (552) 
Bioorg. Med. Chem. Lett.

>  <bao_endpoint>  (552) 
BAO_0000190

>  <potential_duplicate>  (552) 
False

>  <uo_units>  (552) 
UO_0000065

>  <canonical_smiles>  (552) 
COCCN[C@@H]1[C@H](CCc2ccccc12)c3ccsc3

>  <parent_molecule_chembl_id>  (552) 
CHEMBL457247

>  <assay_type>  (552) 
B

>  <src_id>  (552) 
1

>  <ligand_efficiency>  (552) 
{u'le': u'0.42', u'bei': u'21.27', u'sei': u'12.35', u'lle': u'2.84'}

>  <standard_flag>  (552) 
True

>  <molecule_chembl_id>  (552) 
CHEMBL457247

>  <target_organism>  (552) 
Homo sapiens

>  <standard_units>  (552) 
nM

>  <record_id>  (552) 
806215

>  <document_chembl_id>  (552) 
CHEMBL1152717

>  <bao_format>  (552) 
BAO_0000357

>  <data_validity_description>  (552) 
None

>  <activity_id>  (552) 
2607522

>  <standard_type>  (552) 
IC50

>  <target_chembl_id>  (552) 
CHEMBL233

>  <data_validity_comment>  (552) 
None

>  <published_value>  (552) 
772

>  <document_year>  (552) 
2009

>  <target_pref_name>  (552) 
Mu opioid receptor

>  <assay_chembl_id>  (552) 
CHEMBL1030679

>  <standard_relation>  (552) 
=

>  <assay_description>  (552) 
Displacement of [125I]FK33824 from human cloned mu opioid receptor

>  <published_relation>  (552) 
=

>  <standard_value>  (552) 
772

>  <qudt_units>  (552) 
http://www.openphacts.org/units/Nanomolar

>  <target_tax_id>  (552) 
9606

>  <bao_label>  (552) 
single protein format

>  <published_units>  (552) 
nM

>  <pchembl_value>  (552) 
6.11

>  <published_type>  (552) 
IC50

>  <activity_comment>  (552) 
None

$$$$

     RDKit          

 35 39  0  0  0  0  0  0  0  0999 V2000
    0.0000    0.0000    0.0000 C   0  0  0  0  0  0  0  0  0  0  0  0
    0.0000    0.0000    0.0000 O   0  0  0  0  0  0  0  0  0  0  0  0
    0.0000    0.0000    0.0000 C   0  0  0  0  0  0  0  0  0  0  0  0
    0.0000    0.0000    0.0000 C   0  0  0  0  0  0  0  0  0  0  0  0
    0.0000    0.0000    0.0000 N   0  0  0  0  0  0  0  0  0  0  0  0
    0.0000    0.0000    0.0000 C   0  0  0  0  0  0  0  0  0  0  0  0
    0.0000    0.0000    0.0000 C   0  0  0  0  0  0  0  0  0  0  0  0
    0.0000    0.0000    0.0000 C   0  0  0  0  0  0  0  0  0  0  0  0
    0.0000    0.0000    0.0000 C   0  0  0  0  0  0  0  0  0  0  0  0
    0.0000    0.0000    0.0000 C   0  0  0  0  0  0  0  0  0  0  0  0
    0.0000    0.0000    0.0000 C   0  0  0  0  0  0  0  0  0  0  0  0
    0.0000    0.0000    0.0000 C   0  0  0  0  0  0  0  0  0  0  0  0
    0.0000    0.0000    0.0000 C   0  0  0  0  0  0  0  0  0  0  0  0
    0.0000    0.0000    0.0000 C   0  0  0  0  0  0  0  0  0  0  0  0
    0.0000    0.0000    0.0000 C   0  0  0  0  0  0  0  0  0  0  0  0
    0.0000    0.0000    0.0000 N   0  0  0  0  0  0  0  0  0  0  0  0
    0.0000    0.0000    0.0000 C   0  0  0  0  0  0  0  0  0  0  0  0
    0.0000    0.0000    0.0000 C   0  0  0  0  0  0  0  0  0  0  0  0
    0.0000    0.0000    0.0000 N   0  0  0  0  0  0  0  0  0  0  0  0
    0.0000    0.0000    0.0000 C   0  0  0  0  0  0  0  0  0  0  0  0
    0.0000    0.0000    0.0000 C   0  0  0  0  0  0  0  0  0  0  0  0
    0.0000    0.0000    0.0000 C   0  0  0  0  0  0  0  0  0  0  0  0
    0.0000    0.0000    0.0000 C   0  0  0  0  0  0  0  0  0  0  0  0
    0.0000    0.0000    0.0000 C   0  0  0  0  0  0  0  0  0  0  0  0
    0.0000    0.0000    0.0000 C   0  0  0  0  0  0  0  0  0  0  0  0
    0.0000    0.0000    0.0000 C   0  0  0  0  0  0  0  0  0  0  0  0
    0.0000    0.0000    0.0000 C   0  0  0  0  0  0  0  0  0  0  0  0
    0.0000    0.0000    0.0000 C   0  0  0  0  0  0  0  0  0  0  0  0
    0.0000    0.0000    0.0000 O   0  0  0  0  0  0  0  0  0  0  0  0
    0.0000    0.0000    0.0000 C   0  0  0  0  0  0  0  0  0  0  0  0
    0.0000    0.0000    0.0000 S   0  0  0  0  0  0  0  0  0  0  0  0
    0.0000    0.0000    0.0000 C   0  0  0  0  0  0  0  0  0  0  0  0
    0.0000    0.0000    0.0000 C   0  0  0  0  0  0  0  0  0  0  0  0
    0.0000    0.0000    0.0000 C   0  0  0  0  0  0  0  0  0  0  0  0
    0.0000    0.0000    0.0000 Cl  0  0  0  0  0  0  0  0  0  0  0  0
  1  2  1  0
  2  3  1  0
  3  4  1  0
  4  5  1  0
  5  6  1  0
  6  7  1  0
  7  8  1  0
  8  9  2  0
  9 10  1  0
 10 11  2  0
 11 12  1  0
 12 13  2  0
 13 14  1  0
 14 15  2  0
  7 16  1  0
 16 17  1  0
 17 18  1  0
 18 19  1  0
 19 20  1  0
 20 21  1  0
 19 22  1  0
 22 23  2  0
 23 24  1  0
 24 25  2  0
 25 26  1  0
 26 27  2  0
  5 28  1  0
 28 29  2  0
 28 30  1  0
 30 31  1  0
 31 32  1  0
 32 33  2  0
 33 34  1  0
 34 35  1  0
 15  6  1  0
 15 10  1  0
 21 16  1  0
 27 22  1  0
 34 30  2  0
M  END
>  <pIC50>  (553) 
5.55

>  <ChEMBL_ID>  (553) 
CHEMBL461481

>  <document_journal>  (553) 
Bioorg. Med. Chem. Lett.

>  <bao_endpoint>  (553) 
BAO_0000190

>  <potential_duplicate>  (553) 
False

>  <uo_units>  (553) 
UO_0000065

>  <canonical_smiles>  (553) 
COCCN([C@@H]1[C@H](C=Cc2ccccc12)N3CCN(CC3)c4ccccc4)C(=O)c5sccc5Cl

>  <parent_molecule_chembl_id>  (553) 
CHEMBL461481

>  <assay_type>  (553) 
B

>  <src_id>  (553) 
1

>  <ligand_efficiency>  (553) 
{u'le': u'0.22', u'bei': u'10.93', u'sei': u'8.64', u'lle': u'0.19'}

>  <standard_flag>  (553) 
True

>  <molecule_chembl_id>  (553) 
CHEMBL461481

>  <target_organism>  (553) 
Homo sapiens

>  <standard_units>  (553) 
nM

>  <record_id>  (553) 
806131

>  <document_chembl_id>  (553) 
CHEMBL1152717

>  <bao_format>  (553) 
BAO_0000357

>  <data_validity_description>  (553) 
None

>  <activity_id>  (553) 
2607523

>  <standard_type>  (553) 
IC50

>  <target_chembl_id>  (553) 
CHEMBL233

>  <data_validity_comment>  (553) 
None

>  <published_value>  (553) 
2.8

>  <document_year>  (553) 
2009

>  <target_pref_name>  (553) 
Mu opioid receptor

>  <assay_chembl_id>  (553) 
CHEMBL1030679

>  <standard_relation>  (553) 
=

>  <assay_description>  (553) 
Displacement of [125I]FK33824 from human cloned mu opioid receptor

>  <published_relation>  (553) 
=

>  <standard_value>  (553) 
2800

>  <qudt_units>  (553) 
http://www.openphacts.org/units/Nanomolar

>  <target_tax_id>  (553) 
9606

>  <bao_label>  (553) 
single protein format

>  <published_units>  (553) 
uM

>  <pchembl_value>  (553) 
5.55

>  <published_type>  (553) 
IC50

>  <activity_comment>  (553) 
None

$$$$

     RDKit          

 19 21  0  0  0  0  0  0  0  0999 V2000
    0.0000    0.0000    0.0000 C   0  0  0  0  0  0  0  0  0  0  0  0
    0.0000    0.0000    0.0000 C   0  0  0  0  0  0  0  0  0  0  0  0
    0.0000    0.0000    0.0000 C   0  0  0  0  0  0  0  0  0  0  0  0
    0.0000    0.0000    0.0000 N   0  0  0  0  0  0  0  0  0  0  0  0
    0.0000    0.0000    0.0000 C   0  0  0  0  0  0  0  0  0  0  0  0
    0.0000    0.0000    0.0000 C   0  0  0  0  0  0  0  0  0  0  0  0
    0.0000    0.0000    0.0000 C   0  0  0  0  0  0  0  0  0  0  0  0
    0.0000    0.0000    0.0000 N   0  0  0  0  0  0  0  0  0  0  0  0
    0.0000    0.0000    0.0000 C   0  0  0  0  0  0  0  0  0  0  0  0
    0.0000    0.0000    0.0000 O   0  0  0  0  0  0  0  0  0  0  0  0
    0.0000    0.0000    0.0000 N   0  0  0  0  0  0  0  0  0  0  0  0
    0.0000    0.0000    0.0000 C   0  0  0  0  0  0  0  0  0  0  0  0
    0.0000    0.0000    0.0000 C   0  0  0  0  0  0  0  0  0  0  0  0
    0.0000    0.0000    0.0000 C   0  0  0  0  0  0  0  0  0  0  0  0
    0.0000    0.0000    0.0000 C   0  0  0  0  0  0  0  0  0  0  0  0
    0.0000    0.0000    0.0000 C   0  0  0  0  0  0  0  0  0  0  0  0
    0.0000    0.0000    0.0000 C   0  0  0  0  0  0  0  0  0  0  0  0
    0.0000    0.0000    0.0000 O   0  0  0  0  0  0  0  0  0  0  0  0
    0.0000    0.0000    0.0000 C   0  0  0  0  0  0  0  0  0  0  0  0
  1  2  1  0
  2  3  1  0
  2  4  1  0
  4  5  1  0
  5  6  1  0
  6  7  1  0
  7  8  1  0
  8  9  1  0
  9 10  2  0
  9 11  1  0
 11 12  1  0
 12 13  2  0
 13 14  1  0
 14 15  2  0
 15 16  1  0
 16 17  1  0
 17 18  1  0
 16 19  2  0
 17  5  1  0
 19  8  1  0
 19 12  1  0
M  END
>  <pIC50>  (554) 
4.77

>  <ChEMBL_ID>  (554) 
CHEMBL470585

>  <document_journal>  (554) 
J. Med. Chem.

>  <bao_endpoint>  (554) 
BAO_0000190

>  <potential_duplicate>  (554) 
False

>  <uo_units>  (554) 
UO_0000065

>  <canonical_smiles>  (554) 
Cl.CC(C)N[C@H]1CCN2C(=O)Nc3cccc([C@@H]1O)c23

>  <parent_molecule_chembl_id>  (554) 
CHEMBL470584

>  <assay_type>  (554) 
B

>  <src_id>  (554) 
1

>  <ligand_efficiency>  (554) 
{u'le': u'0.34', u'bei': u'18.25', u'sei': u'7.38', u'lle': u'4.21'}

>  <standard_flag>  (554) 
True

>  <molecule_chembl_id>  (554) 
CHEMBL470585

>  <target_organism>  (554) 
Homo sapiens

>  <standard_units>  (554) 
nM

>  <record_id>  (554) 
805282

>  <document_chembl_id>  (554) 
CHEMBL1152790

>  <bao_format>  (554) 
BAO_0000219

>  <data_validity_description>  (554) 
None

>  <activity_id>  (554) 
2612953

>  <standard_type>  (554) 
IC50

>  <target_chembl_id>  (554) 
CHEMBL233

>  <data_validity_comment>  (554) 
None

>  <published_value>  (554) 
17

>  <document_year>  (554) 
2009

>  <target_pref_name>  (554) 
Mu opioid receptor

>  <assay_chembl_id>  (554) 
CHEMBL1010736

>  <standard_relation>  (554) 
=

>  <assay_description>  (554) 
Displacement of [3H]DAMGO from human recombinant mu opioid receptor expressed in HEK293 cells by scintillation counting

>  <published_relation>  (554) 
=

>  <standard_value>  (554) 
17000

>  <qudt_units>  (554) 
http://www.openphacts.org/units/Nanomolar

>  <target_tax_id>  (554) 
9606

>  <bao_label>  (554) 
cell-based format

>  <published_units>  (554) 
uM

>  <pchembl_value>  (554) 
4.77

>  <published_type>  (554) 
IC50

>  <activity_comment>  (554) 
None

$$$$

     RDKit          

 19 21  0  0  0  0  0  0  0  0999 V2000
    0.0000    0.0000    0.0000 C   0  0  0  0  0  0  0  0  0  0  0  0
    0.0000    0.0000    0.0000 C   0  0  0  0  0  0  0  0  0  0  0  0
    0.0000    0.0000    0.0000 C   0  0  0  0  0  0  0  0  0  0  0  0
    0.0000    0.0000    0.0000 N   0  0  0  0  0  0  0  0  0  0  0  0
    0.0000    0.0000    0.0000 C   0  0  0  0  0  0  0  0  0  0  0  0
    0.0000    0.0000    0.0000 C   0  0  0  0  0  0  0  0  0  0  0  0
    0.0000    0.0000    0.0000 C   0  0  0  0  0  0  0  0  0  0  0  0
    0.0000    0.0000    0.0000 N   0  0  0  0  0  0  0  0  0  0  0  0
    0.0000    0.0000    0.0000 C   0  0  0  0  0  0  0  0  0  0  0  0
    0.0000    0.0000    0.0000 O   0  0  0  0  0  0  0  0  0  0  0  0
    0.0000    0.0000    0.0000 N   0  0  0  0  0  0  0  0  0  0  0  0
    0.0000    0.0000    0.0000 C   0  0  0  0  0  0  0  0  0  0  0  0
    0.0000    0.0000    0.0000 C   0  0  0  0  0  0  0  0  0  0  0  0
    0.0000    0.0000    0.0000 C   0  0  0  0  0  0  0  0  0  0  0  0
    0.0000    0.0000    0.0000 C   0  0  0  0  0  0  0  0  0  0  0  0
    0.0000    0.0000    0.0000 C   0  0  0  0  0  0  0  0  0  0  0  0
    0.0000    0.0000    0.0000 C   0  0  0  0  0  0  0  0  0  0  0  0
    0.0000    0.0000    0.0000 O   0  0  0  0  0  0  0  0  0  0  0  0
    0.0000    0.0000    0.0000 C   0  0  0  0  0  0  0  0  0  0  0  0
  1  2  1  0
  2  3  1  0
  2  4  1  0
  4  5  1  0
  5  6  1  0
  6  7  1  0
  7  8  1  0
  8  9  1  0
  9 10  2  0
  9 11  1  0
 11 12  1  0
 12 13  2  0
 13 14  1  0
 14 15  2  0
 15 16  1  0
 16 17  1  0
 17 18  1  0
 16 19  2  0
 17  5  1  0
 19  8  1  0
 19 12  1  0
M  END
>  <pIC50>  (555) 
4.51

>  <ChEMBL_ID>  (555) 
CHEMBL513390

>  <document_journal>  (555) 
J. Med. Chem.

>  <bao_endpoint>  (555) 
BAO_0000190

>  <potential_duplicate>  (555) 
False

>  <uo_units>  (555) 
UO_0000065

>  <canonical_smiles>  (555) 
Cl.CC(C)N[C@@H]1CCN2C(=O)Nc3cccc([C@H]1O)c23

>  <parent_molecule_chembl_id>  (555) 
CHEMBL462313

>  <assay_type>  (555) 
B

>  <src_id>  (555) 
1

>  <ligand_efficiency>  (555) 
{u'le': u'0.32', u'bei': u'17.25', u'sei': u'6.98', u'lle': u'3.95'}

>  <standard_flag>  (555) 
True

>  <molecule_chembl_id>  (555) 
CHEMBL513390

>  <target_organism>  (555) 
Homo sapiens

>  <standard_units>  (555) 
nM

>  <record_id>  (555) 
805284

>  <document_chembl_id>  (555) 
CHEMBL1152790

>  <bao_format>  (555) 
BAO_0000219

>  <data_validity_description>  (555) 
None

>  <activity_id>  (555) 
2612955

>  <standard_type>  (555) 
IC50

>  <target_chembl_id>  (555) 
CHEMBL233

>  <data_validity_comment>  (555) 
None

>  <published_value>  (555) 
31

>  <document_year>  (555) 
2009

>  <target_pref_name>  (555) 
Mu opioid receptor

>  <assay_chembl_id>  (555) 
CHEMBL1010736

>  <standard_relation>  (555) 
=

>  <assay_description>  (555) 
Displacement of [3H]DAMGO from human recombinant mu opioid receptor expressed in HEK293 cells by scintillation counting

>  <published_relation>  (555) 
=

>  <standard_value>  (555) 
31000

>  <qudt_units>  (555) 
http://www.openphacts.org/units/Nanomolar

>  <target_tax_id>  (555) 
9606

>  <bao_label>  (555) 
cell-based format

>  <published_units>  (555) 
uM

>  <pchembl_value>  (555) 
4.51

>  <published_type>  (555) 
IC50

>  <activity_comment>  (555) 
None

$$$$

     RDKit          

 29 32  0  0  0  0  0  0  0  0999 V2000
    0.0000    0.0000    0.0000 C   0  0  0  0  0  0  0  0  0  0  0  0
    0.0000    0.0000    0.0000 C   0  0  0  0  0  0  0  0  0  0  0  0
    0.0000    0.0000    0.0000 N   0  0  0  0  0  0  0  0  0  0  0  0
    0.0000    0.0000    0.0000 C   0  0  0  0  0  0  0  0  0  0  0  0
    0.0000    0.0000    0.0000 C   0  0  0  0  0  0  0  0  0  0  0  0
    0.0000    0.0000    0.0000 C   0  0  0  0  0  0  0  0  0  0  0  0
    0.0000    0.0000    0.0000 C   0  0  0  0  0  0  0  0  0  0  0  0
    0.0000    0.0000    0.0000 F   0  0  0  0  0  0  0  0  0  0  0  0
    0.0000    0.0000    0.0000 C   0  0  0  0  0  0  0  0  0  0  0  0
    0.0000    0.0000    0.0000 C   0  0  0  0  0  0  0  0  0  0  0  0
    0.0000    0.0000    0.0000 C   0  0  0  0  0  0  0  0  0  0  0  0
    0.0000    0.0000    0.0000 C   0  0  0  0  0  0  0  0  0  0  0  0
    0.0000    0.0000    0.0000 C   0  0  0  0  0  0  0  0  0  0  0  0
    0.0000    0.0000    0.0000 N   0  0  0  0  0  0  0  0  0  0  0  0
    0.0000    0.0000    0.0000 C   0  0  0  0  0  0  0  0  0  0  0  0
    0.0000    0.0000    0.0000 C   0  0  0  0  0  0  0  0  0  0  0  0
    0.0000    0.0000    0.0000 C   0  0  0  0  0  0  0  0  0  0  0  0
    0.0000    0.0000    0.0000 C   0  0  0  0  0  0  0  0  0  0  0  0
    0.0000    0.0000    0.0000 F   0  0  0  0  0  0  0  0  0  0  0  0
    0.0000    0.0000    0.0000 C   0  0  0  0  0  0  0  0  0  0  0  0
    0.0000    0.0000    0.0000 N   0  0  0  0  0  0  0  0  0  0  0  0
    0.0000    0.0000    0.0000 N   0  0  0  0  0  0  0  0  0  0  0  0
    0.0000    0.0000    0.0000 C   0  0  0  0  0  0  0  0  0  0  0  0
    0.0000    0.0000    0.0000 N   0  0  0  0  0  0  0  0  0  0  0  0
    0.0000    0.0000    0.0000 C   0  0  0  0  0  0  0  0  0  0  0  0
    0.0000    0.0000    0.0000 C   0  0  0  0  0  0  0  0  0  0  0  0
    0.0000    0.0000    0.0000 C   0  0  0  0  0  0  0  0  0  0  0  0
    0.0000    0.0000    0.0000 C   0  0  0  0  0  0  0  0  0  0  0  0
    0.0000    0.0000    0.0000 Cl  0  0  0  0  0  0  0  0  0  0  0  0
  1  2  1  0
  2  3  2  0
  3  4  1  0
  4  5  2  0
  5  6  1  0
  6  7  2  0
  7  8  1  0
  5  9  1  0
  9 10  2  0
 10 11  1  0
 10 12  1  0
 12 13  1  0
 13 14  1  0
 14 15  1  0
 15 16  1  0
 16 17  1  0
 17 18  1  0
 18 19  1  0
 18 20  1  0
 12 21  2  0
 21 22  1  0
 22 23  1  0
 23 24  2  0
 24 25  1  0
 25 26  2  0
 26 27  1  0
 27 28  2  0
 28 29  1  0
  7  2  1  0
 22  9  1  0
 20 15  1  0
 28 23  1  0
M  END
>  <pIC50>  (556) 
5.25

>  <ChEMBL_ID>  (556) 
CHEMBL466648

>  <document_journal>  (556) 
Bioorg. Med. Chem. Lett.

>  <bao_endpoint>  (556) 
BAO_0000190

>  <potential_duplicate>  (556) 
False

>  <uo_units>  (556) 
UO_0000065

>  <canonical_smiles>  (556) 
Cc1ncc(cc1F)c2c(C)c(CN[C@H]3CC[C@@H](F)C3)nn2c4ncccc4Cl

>  <parent_molecule_chembl_id>  (556) 
CHEMBL466648

>  <assay_type>  (556) 
B

>  <src_id>  (556) 
1

>  <ligand_efficiency>  (556) 
{u'le': u'0.25', u'bei': u'12.57', u'sei': u'9.44', u'lle': u'0.77'}

>  <standard_flag>  (556) 
True

>  <molecule_chembl_id>  (556) 
CHEMBL466648

>  <target_organism>  (556) 
Homo sapiens

>  <standard_units>  (556) 
nM

>  <record_id>  (556) 
757585

>  <document_chembl_id>  (556) 
CHEMBL1136941

>  <bao_format>  (556) 
BAO_0000219

>  <data_validity_description>  (556) 
None

>  <activity_id>  (556) 
2624259

>  <standard_type>  (556) 
IC50

>  <target_chembl_id>  (556) 
CHEMBL233

>  <data_validity_comment>  (556) 
None

>  <published_value>  (556) 
5600

>  <document_year>  (556) 
2009

>  <target_pref_name>  (556) 
Mu opioid receptor

>  <assay_chembl_id>  (556) 
CHEMBL1007472

>  <standard_relation>  (556) 
=

>  <assay_description>  (556) 
Displacement of [3H]diprenorphin from human cloned mu opioid receptor expressed in CHO cells

>  <published_relation>  (556) 
=

>  <standard_value>  (556) 
5600

>  <qudt_units>  (556) 
http://www.openphacts.org/units/Nanomolar

>  <target_tax_id>  (556) 
9606

>  <bao_label>  (556) 
cell-based format

>  <published_units>  (556) 
nM

>  <pchembl_value>  (556) 
5.25

>  <published_type>  (556) 
IC50

>  <activity_comment>  (556) 
None

$$$$

     RDKit          

 43 48  0  0  0  0  0  0  0  0999 V2000
    0.0000    0.0000    0.0000 O   0  0  0  0  0  0  0  0  0  0  0  0
    0.0000    0.0000    0.0000 C   0  0  0  0  0  0  0  0  0  0  0  0
    0.0000    0.0000    0.0000 N   0  0  0  0  0  0  0  0  0  0  0  0
    0.0000    0.0000    0.0000 C   0  0  0  0  0  0  0  0  0  0  0  0
    0.0000    0.0000    0.0000 C   0  0  0  0  0  0  0  0  0  0  0  0
    0.0000    0.0000    0.0000 C   0  0  0  0  0  0  0  0  0  0  0  0
    0.0000    0.0000    0.0000 C   0  0  0  0  0  0  0  0  0  0  0  0
    0.0000    0.0000    0.0000 N   0  0  0  0  0  0  0  0  0  0  0  0
    0.0000    0.0000    0.0000 C   0  0  0  0  0  0  0  0  0  0  0  0
    0.0000    0.0000    0.0000 C   0  0  0  0  0  0  0  0  0  0  0  0
    0.0000    0.0000    0.0000 C   0  0  0  0  0  0  0  0  0  0  0  0
    0.0000    0.0000    0.0000 C   0  0  0  0  0  0  0  0  0  0  0  0
    0.0000    0.0000    0.0000 C   0  0  0  0  0  0  0  0  0  0  0  0
    0.0000    0.0000    0.0000 C   0  0  0  0  0  0  0  0  0  0  0  0
    0.0000    0.0000    0.0000 C   0  0  0  0  0  0  0  0  0  0  0  0
    0.0000    0.0000    0.0000 O   0  0  0  0  0  0  0  0  0  0  0  0
    0.0000    0.0000    0.0000 N   0  0  0  0  0  0  0  0  0  0  0  0
    0.0000    0.0000    0.0000 C   0  0  0  0  0  0  0  0  0  0  0  0
    0.0000    0.0000    0.0000 C   0  0  0  0  0  0  0  0  0  0  0  0
    0.0000    0.0000    0.0000 C   0  0  0  0  0  0  0  0  0  0  0  0
    0.0000    0.0000    0.0000 C   0  0  0  0  0  0  0  0  0  0  0  0
    0.0000    0.0000    0.0000 C   0  0  0  0  0  0  0  0  0  0  0  0
    0.0000    0.0000    0.0000 C   0  0  0  0  0  0  0  0  0  0  0  0
    0.0000    0.0000    0.0000 C   0  0  0  0  0  0  0  0  0  0  0  0
    0.0000    0.0000    0.0000 C   0  0  0  0  0  0  0  0  0  0  0  0
    0.0000    0.0000    0.0000 C   0  0  0  0  0  0  0  0  0  0  0  0
    0.0000    0.0000    0.0000 O   0  0  0  0  0  0  0  0  0  0  0  0
    0.0000    0.0000    0.0000 N   0  0  0  0  0  0  0  0  0  0  0  0
    0.0000    0.0000    0.0000 C   0  0  0  0  0  0  0  0  0  0  0  0
    0.0000    0.0000    0.0000 C   0  0  0  0  0  0  0  0  0  0  0  0
    0.0000    0.0000    0.0000 C   0  0  0  0  0  0  0  0  0  0  0  0
    0.0000    0.0000    0.0000 C   0  0  0  0  0  0  0  0  0  0  0  0
    0.0000    0.0000    0.0000 C   0  0  0  0  0  0  0  0  0  0  0  0
    0.0000    0.0000    0.0000 O   0  0  0  0  0  0  0  0  0  0  0  0
    0.0000    0.0000    0.0000 N   0  0  0  0  0  0  0  0  0  0  0  0
    0.0000    0.0000    0.0000 C   0  0  0  0  0  0  0  0  0  0  0  0
    0.0000    0.0000    0.0000 C   0  0  0  0  0  0  0  0  0  0  0  0
    0.0000    0.0000    0.0000 C   0  0  0  0  0  0  0  0  0  0  0  0
    0.0000    0.0000    0.0000 C   0  0  0  0  0  0  0  0  0  0  0  0
    0.0000    0.0000    0.0000 C   0  0  0  0  0  0  0  0  0  0  0  0
    0.0000    0.0000    0.0000 C   0  0  0  0  0  0  0  0  0  0  0  0
    0.0000    0.0000    0.0000 C   0  0  0  0  0  0  0  0  0  0  0  0
    0.0000    0.0000    0.0000 C   0  0  0  0  0  0  0  0  0  0  0  0
  1  2  2  0
  2  3  1  0
  3  4  1  0
  4  5  1  0
  5  6  1  0
  6  7  2  0
  7  8  1  0
  8  9  1  0
  9 10  2  0
 10 11  1  0
 11 12  2  0
 12 13  1  0
 13 14  2  0
  4 15  1  0
 15 16  2  0
 15 17  1  0
 17 18  1  0
 18 19  1  0
 19 20  1  0
 20 21  2  0
 21 22  1  0
 22 23  2  0
 23 24  1  0
 24 25  2  0
 18 26  1  0
 26 27  2  0
 26 28  1  0
 28 29  1  0
 29 30  1  0
 30 31  1  0
 31 32  1  0
 32 33  1  0
 33 34  2  0
 33 35  1  0
 35 36  1  0
 36 37  1  0
 37 38  1  0
 38 39  2  0
 39 40  1  0
 40 41  2  0
 41 42  1  0
 42 43  2  0
 36  2  1  0
 14  6  1  0
 14  9  1  0
 25 20  1  0
 32 28  1  0
 43 38  1  0
M  END
>  <pIC50>  (557) 
7.6

>  <ChEMBL_ID>  (557) 
CHEMBL506616

>  <document_journal>  (557) 
Bioorg. Med. Chem. Lett.

>  <bao_endpoint>  (557) 
BAO_0000190

>  <potential_duplicate>  (557) 
False

>  <uo_units>  (557) 
UO_0000065

>  <canonical_smiles>  (557) 
O=C1N[C@@H](Cc2c[nH]c3ccccc23)C(=O)N[C@@H](Cc4ccccc4)C(=O)N5CCC[C@@H]5C(=O)N[C@H]1Cc6ccccc6

>  <parent_molecule_chembl_id>  (557) 
CHEMBL506616

>  <assay_type>  (557) 
B

>  <src_id>  (557) 
1

>  <ligand_efficiency>  (557) 
{u'le': u'0.24', u'bei': u'13.16', u'sei': u'6.16', u'lle': u'4.14'}

>  <standard_flag>  (557) 
True

>  <molecule_chembl_id>  (557) 
CHEMBL506616

>  <target_organism>  (557) 
Homo sapiens

>  <standard_units>  (557) 
nM

>  <record_id>  (557) 
784836

>  <document_chembl_id>  (557) 
CHEMBL1136971

>  <bao_format>  (557) 
BAO_0000219

>  <data_validity_description>  (557) 
None

>  <activity_id>  (557) 
2628988

>  <standard_type>  (557) 
IC50

>  <target_chembl_id>  (557) 
CHEMBL233

>  <data_validity_comment>  (557) 
None

>  <published_value>  (557) 
25

>  <document_year>  (557) 
2009

>  <target_pref_name>  (557) 
Mu opioid receptor

>  <assay_chembl_id>  (557) 
CHEMBL1000649

>  <standard_relation>  (557) 
=

>  <assay_description>  (557) 
Antagonist activity at human cloned mu opioid receptor assessed as inhibition of 100 nM loperamide-stimulated GTPgammaS binding by cell based assay

>  <published_relation>  (557) 
=

>  <standard_value>  (557) 
25

>  <qudt_units>  (557) 
http://www.openphacts.org/units/Nanomolar

>  <target_tax_id>  (557) 
9606

>  <bao_label>  (557) 
cell-based format

>  <published_units>  (557) 
nM

>  <pchembl_value>  (557) 
7.6

>  <published_type>  (557) 
IC50

>  <activity_comment>  (557) 
None

$$$$

     RDKit          

 43 48  0  0  0  0  0  0  0  0999 V2000
    0.0000    0.0000    0.0000 O   0  0  0  0  0  0  0  0  0  0  0  0
    0.0000    0.0000    0.0000 C   0  0  0  0  0  0  0  0  0  0  0  0
    0.0000    0.0000    0.0000 N   0  0  0  0  0  0  0  0  0  0  0  0
    0.0000    0.0000    0.0000 C   0  0  0  0  0  0  0  0  0  0  0  0
    0.0000    0.0000    0.0000 C   0  0  0  0  0  0  0  0  0  0  0  0
    0.0000    0.0000    0.0000 C   0  0  0  0  0  0  0  0  0  0  0  0
    0.0000    0.0000    0.0000 C   0  0  0  0  0  0  0  0  0  0  0  0
    0.0000    0.0000    0.0000 N   0  0  0  0  0  0  0  0  0  0  0  0
    0.0000    0.0000    0.0000 C   0  0  0  0  0  0  0  0  0  0  0  0
    0.0000    0.0000    0.0000 C   0  0  0  0  0  0  0  0  0  0  0  0
    0.0000    0.0000    0.0000 C   0  0  0  0  0  0  0  0  0  0  0  0
    0.0000    0.0000    0.0000 C   0  0  0  0  0  0  0  0  0  0  0  0
    0.0000    0.0000    0.0000 C   0  0  0  0  0  0  0  0  0  0  0  0
    0.0000    0.0000    0.0000 C   0  0  0  0  0  0  0  0  0  0  0  0
    0.0000    0.0000    0.0000 C   0  0  0  0  0  0  0  0  0  0  0  0
    0.0000    0.0000    0.0000 O   0  0  0  0  0  0  0  0  0  0  0  0
    0.0000    0.0000    0.0000 N   0  0  0  0  0  0  0  0  0  0  0  0
    0.0000    0.0000    0.0000 C   0  0  0  0  0  0  0  0  0  0  0  0
    0.0000    0.0000    0.0000 C   0  0  0  0  0  0  0  0  0  0  0  0
    0.0000    0.0000    0.0000 C   0  0  0  0  0  0  0  0  0  0  0  0
    0.0000    0.0000    0.0000 C   0  0  0  0  0  0  0  0  0  0  0  0
    0.0000    0.0000    0.0000 C   0  0  0  0  0  0  0  0  0  0  0  0
    0.0000    0.0000    0.0000 C   0  0  0  0  0  0  0  0  0  0  0  0
    0.0000    0.0000    0.0000 C   0  0  0  0  0  0  0  0  0  0  0  0
    0.0000    0.0000    0.0000 C   0  0  0  0  0  0  0  0  0  0  0  0
    0.0000    0.0000    0.0000 C   0  0  0  0  0  0  0  0  0  0  0  0
    0.0000    0.0000    0.0000 O   0  0  0  0  0  0  0  0  0  0  0  0
    0.0000    0.0000    0.0000 N   0  0  0  0  0  0  0  0  0  0  0  0
    0.0000    0.0000    0.0000 C   0  0  0  0  0  0  0  0  0  0  0  0
    0.0000    0.0000    0.0000 C   0  0  0  0  0  0  0  0  0  0  0  0
    0.0000    0.0000    0.0000 C   0  0  0  0  0  0  0  0  0  0  0  0
    0.0000    0.0000    0.0000 C   0  0  0  0  0  0  0  0  0  0  0  0
    0.0000    0.0000    0.0000 C   0  0  0  0  0  0  0  0  0  0  0  0
    0.0000    0.0000    0.0000 O   0  0  0  0  0  0  0  0  0  0  0  0
    0.0000    0.0000    0.0000 N   0  0  0  0  0  0  0  0  0  0  0  0
    0.0000    0.0000    0.0000 C   0  0  0  0  0  0  0  0  0  0  0  0
    0.0000    0.0000    0.0000 C   0  0  0  0  0  0  0  0  0  0  0  0
    0.0000    0.0000    0.0000 C   0  0  0  0  0  0  0  0  0  0  0  0
    0.0000    0.0000    0.0000 C   0  0  0  0  0  0  0  0  0  0  0  0
    0.0000    0.0000    0.0000 C   0  0  0  0  0  0  0  0  0  0  0  0
    0.0000    0.0000    0.0000 C   0  0  0  0  0  0  0  0  0  0  0  0
    0.0000    0.0000    0.0000 C   0  0  0  0  0  0  0  0  0  0  0  0
    0.0000    0.0000    0.0000 C   0  0  0  0  0  0  0  0  0  0  0  0
  1  2  2  0
  2  3  1  0
  3  4  1  0
  4  5  1  0
  5  6  1  0
  6  7  2  0
  7  8  1  0
  8  9  1  0
  9 10  2  0
 10 11  1  0
 11 12  2  0
 12 13  1  0
 13 14  2  0
  4 15  1  0
 15 16  2  0
 15 17  1  0
 17 18  1  0
 18 19  1  0
 19 20  1  0
 20 21  2  0
 21 22  1  0
 22 23  2  0
 23 24  1  0
 24 25  2  0
 18 26  1  0
 26 27  2  0
 26 28  1  0
 28 29  1  0
 29 30  1  0
 30 31  1  0
 31 32  1  0
 32 33  1  0
 33 34  2  0
 33 35  1  0
 35 36  1  0
 36 37  1  0
 37 38  1  0
 38 39  2  0
 39 40  1  0
 40 41  2  0
 41 42  1  0
 42 43  2  0
 36  2  1  0
 14  6  1  0
 14  9  1  0
 25 20  1  0
 32 28  1  0
 43 38  1  0
M  END
>  <pIC50>  (558) 
7.68

>  <ChEMBL_ID>  (558) 
CHEMBL502411

>  <document_journal>  (558) 
Bioorg. Med. Chem. Lett.

>  <bao_endpoint>  (558) 
BAO_0000190

>  <potential_duplicate>  (558) 
False

>  <uo_units>  (558) 
UO_0000065

>  <canonical_smiles>  (558) 
O=C1N[C@H](Cc2c[nH]c3ccccc23)C(=O)N[C@@H](Cc4ccccc4)C(=O)N5CCC[C@@H]5C(=O)N[C@H]1Cc6ccccc6

>  <parent_molecule_chembl_id>  (558) 
CHEMBL502411

>  <assay_type>  (558) 
B

>  <src_id>  (558) 
1

>  <ligand_efficiency>  (558) 
{u'le': u'0.24', u'bei': u'13.29', u'sei': u'6.22', u'lle': u'4.22'}

>  <standard_flag>  (558) 
True

>  <molecule_chembl_id>  (558) 
CHEMBL502411

>  <target_organism>  (558) 
Homo sapiens

>  <standard_units>  (558) 
nM

>  <record_id>  (558) 
784837

>  <document_chembl_id>  (558) 
CHEMBL1136971

>  <bao_format>  (558) 
BAO_0000219

>  <data_validity_description>  (558) 
None

>  <activity_id>  (558) 
2628989

>  <standard_type>  (558) 
IC50

>  <target_chembl_id>  (558) 
CHEMBL233

>  <data_validity_comment>  (558) 
None

>  <published_value>  (558) 
21

>  <document_year>  (558) 
2009

>  <target_pref_name>  (558) 
Mu opioid receptor

>  <assay_chembl_id>  (558) 
CHEMBL1000649

>  <standard_relation>  (558) 
=

>  <assay_description>  (558) 
Antagonist activity at human cloned mu opioid receptor assessed as inhibition of 100 nM loperamide-stimulated GTPgammaS binding by cell based assay

>  <published_relation>  (558) 
=

>  <standard_value>  (558) 
21

>  <qudt_units>  (558) 
http://www.openphacts.org/units/Nanomolar

>  <target_tax_id>  (558) 
9606

>  <bao_label>  (558) 
cell-based format

>  <published_units>  (558) 
nM

>  <pchembl_value>  (558) 
7.68

>  <published_type>  (558) 
IC50

>  <activity_comment>  (558) 
None

$$$$

     RDKit          

 37 41  0  0  0  0  0  0  0  0999 V2000
    0.0000    0.0000    0.0000 C   0  0  0  0  0  0  0  0  0  0  0  0
    0.0000    0.0000    0.0000 C   0  0  0  0  0  0  0  0  0  0  0  0
    0.0000    0.0000    0.0000 N   0  0  0  0  0  0  0  0  0  0  0  0
    0.0000    0.0000    0.0000 C   0  0  0  0  0  0  0  0  0  0  0  0
    0.0000    0.0000    0.0000 O   0  0  0  0  0  0  0  0  0  0  0  0
    0.0000    0.0000    0.0000 C   0  0  0  0  0  0  0  0  0  0  0  0
    0.0000    0.0000    0.0000 C   0  0  0  0  0  0  0  0  0  0  0  0
    0.0000    0.0000    0.0000 C   0  0  0  0  0  0  0  0  0  0  0  0
    0.0000    0.0000    0.0000 C   0  0  0  0  0  0  0  0  0  0  0  0
    0.0000    0.0000    0.0000 N   0  0  0  0  0  0  0  0  0  0  0  0
    0.0000    0.0000    0.0000 C   0  0  0  0  0  0  0  0  0  0  0  0
    0.0000    0.0000    0.0000 C   0  0  0  0  0  0  0  0  0  0  0  0
    0.0000    0.0000    0.0000 C   0  0  0  0  0  0  0  0  0  0  0  0
    0.0000    0.0000    0.0000 C   0  0  0  0  0  0  0  0  0  0  0  0
    0.0000    0.0000    0.0000 C   0  0  0  0  0  0  0  0  0  0  0  0
    0.0000    0.0000    0.0000 C   0  0  0  0  0  0  0  0  0  0  0  0
    0.0000    0.0000    0.0000 N   0  0  0  0  0  0  0  0  0  0  0  0
    0.0000    0.0000    0.0000 C   0  0  0  0  0  0  0  0  0  0  0  0
    0.0000    0.0000    0.0000 O   0  0  0  0  0  0  0  0  0  0  0  0
    0.0000    0.0000    0.0000 C   0  0  0  0  0  0  0  0  0  0  0  0
    0.0000    0.0000    0.0000 C   0  0  0  0  0  0  0  0  0  0  0  0
    0.0000    0.0000    0.0000 C   0  0  0  0  0  0  0  0  0  0  0  0
    0.0000    0.0000    0.0000 C   0  0  0  0  0  0  0  0  0  0  0  0
    0.0000    0.0000    0.0000 C   0  0  0  0  0  0  0  0  0  0  0  0
    0.0000    0.0000    0.0000 C   0  0  0  0  0  0  0  0  0  0  0  0
    0.0000    0.0000    0.0000 C   0  0  0  0  0  0  0  0  0  0  0  0
    0.0000    0.0000    0.0000 C   0  0  0  0  0  0  0  0  0  0  0  0
    0.0000    0.0000    0.0000 N   0  0  0  0  0  0  0  0  0  0  0  0
    0.0000    0.0000    0.0000 C   0  0  0  0  0  0  0  0  0  0  0  0
    0.0000    0.0000    0.0000 O   0  0  0  0  0  0  0  0  0  0  0  0
    0.0000    0.0000    0.0000 C   0  0  0  0  0  0  0  0  0  0  0  0
    0.0000    0.0000    0.0000 C   0  0  0  0  0  0  0  0  0  0  0  0
    0.0000    0.0000    0.0000 C   0  0  0  0  0  0  0  0  0  0  0  0
    0.0000    0.0000    0.0000 C   0  0  0  0  0  0  0  0  0  0  0  0
    0.0000    0.0000    0.0000 N   0  0  0  0  0  0  0  0  0  0  0  0
    0.0000    0.0000    0.0000 C   0  0  0  0  0  0  0  0  0  0  0  0
    0.0000    0.0000    0.0000 O   0  0  0  0  0  0  0  0  0  0  0  0
  1  2  1  0
  2  3  1  0
  3  4  1  0
  4  5  2  0
  4  6  1  0
  6  7  1  0
  7  8  1  0
  8  9  2  0
  9 10  1  0
 10 11  1  0
 11 12  2  0
 12 13  1  0
 13 14  2  0
 14 15  1  0
 15 16  2  0
  6 17  1  0
 17 18  1  0
 18 19  2  0
 18 20  1  0
 20 21  1  0
 21 22  1  0
 22 23  2  0
 23 24  1  0
 24 25  2  0
 25 26  1  0
 26 27  2  0
 20 28  1  0
 28 29  1  0
 29 30  2  0
 29 31  1  0
 31 32  1  0
 32 33  1  0
 33 34  1  0
 34 35  1  0
 35 36  1  0
 36 37  2  0
 36  2  1  0
 16  8  1  0
 16 11  1  0
 27 22  1  0
 35 31  1  0
M  END
>  <pIC50>  (559) 
7.32

>  <ChEMBL_ID>  (559) 
CHEMBL499595

>  <document_journal>  (559) 
Bioorg. Med. Chem. Lett.

>  <bao_endpoint>  (559) 
BAO_0000190

>  <potential_duplicate>  (559) 
False

>  <uo_units>  (559) 
UO_0000065

>  <canonical_smiles>  (559) 
C[C@@H]1NC(=O)[C@@H](Cc2c[nH]c3ccccc23)NC(=O)[C@H](Cc4ccccc4)NC(=O)[C@H]5CCCN5C1=O

>  <parent_molecule_chembl_id>  (559) 
CHEMBL499595

>  <assay_type>  (559) 
B

>  <src_id>  (559) 
1

>  <ligand_efficiency>  (559) 
{u'le': u'0.27', u'bei': u'14.59', u'sei': u'5.93', u'lle': u'5.42'}

>  <standard_flag>  (559) 
True

>  <molecule_chembl_id>  (559) 
CHEMBL499595

>  <target_organism>  (559) 
Homo sapiens

>  <standard_units>  (559) 
nM

>  <record_id>  (559) 
784925

>  <document_chembl_id>  (559) 
CHEMBL1136971

>  <bao_format>  (559) 
BAO_0000219

>  <data_validity_description>  (559) 
None

>  <activity_id>  (559) 
2628999

>  <standard_type>  (559) 
IC50

>  <target_chembl_id>  (559) 
CHEMBL233

>  <data_validity_comment>  (559) 
None

>  <published_value>  (559) 
48

>  <document_year>  (559) 
2009

>  <target_pref_name>  (559) 
Mu opioid receptor

>  <assay_chembl_id>  (559) 
CHEMBL1000649

>  <standard_relation>  (559) 
=

>  <assay_description>  (559) 
Antagonist activity at human cloned mu opioid receptor assessed as inhibition of 100 nM loperamide-stimulated GTPgammaS binding by cell based assay

>  <published_relation>  (559) 
=

>  <standard_value>  (559) 
48

>  <qudt_units>  (559) 
http://www.openphacts.org/units/Nanomolar

>  <target_tax_id>  (559) 
9606

>  <bao_label>  (559) 
cell-based format

>  <published_units>  (559) 
nM

>  <pchembl_value>  (559) 
7.32

>  <published_type>  (559) 
IC50

>  <activity_comment>  (559) 
None

$$$$

     RDKit          

 31 34  0  0  0  0  0  0  0  0999 V2000
    0.0000    0.0000    0.0000 C   0  0  0  0  0  0  0  0  0  0  0  0
    0.0000    0.0000    0.0000 C   0  0  0  0  0  0  0  0  0  0  0  0
    0.0000    0.0000    0.0000 N   0  0  0  0  0  0  0  0  0  0  0  0
    0.0000    0.0000    0.0000 C   0  0  0  0  0  0  0  0  0  0  0  0
    0.0000    0.0000    0.0000 C   0  0  0  0  0  0  0  0  0  0  0  0
    0.0000    0.0000    0.0000 N   0  0  0  0  0  0  0  0  0  0  0  0
    0.0000    0.0000    0.0000 C   0  0  0  0  0  0  0  0  0  0  0  0
    0.0000    0.0000    0.0000 C   0  0  0  0  0  0  0  0  0  0  0  0
    0.0000    0.0000    0.0000 C   0  0  0  0  0  0  0  0  0  0  0  0
    0.0000    0.0000    0.0000 C   0  0  0  0  0  0  0  0  0  0  0  0
    0.0000    0.0000    0.0000 C   0  0  0  0  0  0  0  0  0  0  0  0
    0.0000    0.0000    0.0000 N   0  0  0  0  0  0  0  0  0  0  0  0
    0.0000    0.0000    0.0000 C   0  0  0  0  0  0  0  0  0  0  0  0
    0.0000    0.0000    0.0000 S   0  0  0  0  0  0  0  0  0  0  0  0
    0.0000    0.0000    0.0000 C   0  0  0  0  0  0  0  0  0  0  0  0
    0.0000    0.0000    0.0000 C   0  0  0  0  0  0  0  0  0  0  0  0
    0.0000    0.0000    0.0000 C   0  0  0  0  0  0  0  0  0  0  0  0
    0.0000    0.0000    0.0000 C   0  0  0  0  0  0  0  0  0  0  0  0
    0.0000    0.0000    0.0000 C   0  0  0  0  0  0  0  0  0  0  0  0
    0.0000    0.0000    0.0000 C   0  0  0  0  0  0  0  0  0  0  0  0
    0.0000    0.0000    0.0000 C   0  0  0  0  0  0  0  0  0  0  0  0
    0.0000    0.0000    0.0000 N   0  0  0  0  0  0  0  0  0  0  0  0
    0.0000    0.0000    0.0000 C   0  0  0  0  0  0  0  0  0  0  0  0
    0.0000    0.0000    0.0000 C   0  0  0  0  0  0  0  0  0  0  0  0
    0.0000    0.0000    0.0000 O   0  0  0  0  0  0  0  0  0  0  0  0
    0.0000    0.0000    0.0000 C   0  0  0  0  0  0  0  0  0  0  0  0
    0.0000    0.0000    0.0000 N   0  0  0  0  0  0  0  0  0  0  0  0
    0.0000    0.0000    0.0000 C   0  0  0  0  0  0  0  0  0  0  0  0
    0.0000    0.0000    0.0000 C   0  0  0  0  0  0  0  0  0  0  0  0
    0.0000    0.0000    0.0000 C   0  0  0  0  0  0  0  0  0  0  0  0
    0.0000    0.0000    0.0000 Cl  0  0  0  0  0  0  0  0  0  0  0  0
  1  2  1  0
  2  3  1  0
  3  4  1  0
  4  5  1  0
  5  6  1  0
  6  7  1  0
  7  8  1  0
  6  9  1  0
  9 10  2  0
 10 11  1  0
 11 12  1  0
 12 13  1  0
 13 14  1  0
 14 15  1  0
 15 16  1  0
 15 17  1  0
 17 18  1  0
 18 19  1  0
 19 20  1  0
 20 21  1  0
 19 22  1  0
 22 23  1  0
 22 24  1  0
 24 25  2  0
 24 26  1  0
 13 27  2  0
 27 28  1  0
 28 29  1  0
 29 30  2  0
 30 31  1  0
  8  3  1  0
 30  9  1  0
 28 11  2  0
 21 15  1  0
M  END
>  <pIC50>  (560) 
6.08

>  <ChEMBL_ID>  (560) 
CHEMBL467057

>  <document_journal>  (560) 
Bioorg. Med. Chem. Lett.

>  <bao_endpoint>  (560) 
BAO_0000190

>  <potential_duplicate>  (560) 
False

>  <uo_units>  (560) 
UO_0000065

>  <canonical_smiles>  (560) 
CCN1CCN(CC1)c2cc3[nH]c(S[C@@]4(C)CC[C@@H](CC4)N(C)C(=O)C)nc3cc2Cl

>  <parent_molecule_chembl_id>  (560) 
CHEMBL467057

>  <assay_type>  (560) 
B

>  <src_id>  (560) 
1

>  <ligand_efficiency>  (560) 
{u'le': u'0.27', u'bei': u'13.09', u'sei': u'7.52', u'lle': u'1.75'}

>  <standard_flag>  (560) 
True

>  <molecule_chembl_id>  (560) 
CHEMBL467057

>  <target_organism>  (560) 
Homo sapiens

>  <standard_units>  (560) 
nM

>  <record_id>  (560) 
756986

>  <document_chembl_id>  (560) 
CHEMBL1136886

>  <bao_format>  (560) 
BAO_0000219

>  <data_validity_description>  (560) 
None

>  <activity_id>  (560) 
2638819

>  <standard_type>  (560) 
IC50

>  <target_chembl_id>  (560) 
CHEMBL233

>  <data_validity_comment>  (560) 
None

>  <published_value>  (560) 
840

>  <document_year>  (560) 
2009

>  <target_pref_name>  (560) 
Mu opioid receptor

>  <assay_chembl_id>  (560) 
CHEMBL972467

>  <standard_relation>  (560) 
=

>  <assay_description>  (560) 
Displacement of [3H]diprenorphin from human cloned mu opioid receptor expressed in CHO cells

>  <published_relation>  (560) 
=

>  <standard_value>  (560) 
840

>  <qudt_units>  (560) 
http://www.openphacts.org/units/Nanomolar

>  <target_tax_id>  (560) 
9606

>  <bao_label>  (560) 
cell-based format

>  <published_units>  (560) 
nM

>  <pchembl_value>  (560) 
6.08

>  <published_type>  (560) 
IC50

>  <activity_comment>  (560) 
None

$$$$

     RDKit          

 31 36  0  0  0  0  0  0  0  0999 V2000
    0.0000    0.0000    0.0000 O   0  0  0  0  0  0  0  0  0  0  0  0
    0.0000    0.0000    0.0000 C   0  0  0  0  0  0  0  0  0  0  0  0
    0.0000    0.0000    0.0000 C   0  0  0  0  0  0  0  0  0  0  0  0
    0.0000    0.0000    0.0000 O   0  0  0  0  0  0  0  0  0  0  0  0
    0.0000    0.0000    0.0000 C   0  0  0  0  0  0  0  0  0  0  0  0
    0.0000    0.0000    0.0000 N   0  0  0  0  0  0  0  0  0  0  0  0
    0.0000    0.0000    0.0000 C   0  0  0  0  0  0  0  0  0  0  0  0
    0.0000    0.0000    0.0000 O   0  0  0  0  0  0  0  0  0  0  0  0
    0.0000    0.0000    0.0000 N   0  0  0  0  0  0  0  0  0  0  0  0
    0.0000    0.0000    0.0000 C   0  0  0  0  0  0  0  0  0  0  0  0
    0.0000    0.0000    0.0000 C   0  0  0  0  0  0  0  0  0  0  0  0
    0.0000    0.0000    0.0000 C   0  0  0  0  0  0  0  0  0  0  0  0
    0.0000    0.0000    0.0000 N   0  0  0  0  0  0  0  0  0  0  0  0
    0.0000    0.0000    0.0000 C   0  0  0  0  0  0  0  0  0  0  0  0
    0.0000    0.0000    0.0000 C   0  0  0  0  0  0  0  0  0  0  0  0
    0.0000    0.0000    0.0000 C   0  0  0  0  0  0  0  0  0  0  0  0
    0.0000    0.0000    0.0000 C   0  0  0  0  0  0  0  0  0  0  0  0
    0.0000    0.0000    0.0000 C   0  0  0  0  0  0  0  0  0  0  0  0
    0.0000    0.0000    0.0000 C   0  0  0  0  0  0  0  0  0  0  0  0
    0.0000    0.0000    0.0000 C   0  0  0  0  0  0  0  0  0  0  0  0
    0.0000    0.0000    0.0000 C   0  0  0  0  0  0  0  0  0  0  0  0
    0.0000    0.0000    0.0000 C   0  0  0  0  0  0  0  0  0  0  0  0
    0.0000    0.0000    0.0000 C   0  0  0  0  0  0  0  0  0  0  0  0
    0.0000    0.0000    0.0000 C   0  0  0  0  0  0  0  0  0  0  0  0
    0.0000    0.0000    0.0000 C   0  0  0  0  0  0  0  0  0  0  0  0
    0.0000    0.0000    0.0000 C   0  0  0  0  0  0  0  0  0  0  0  0
    0.0000    0.0000    0.0000 C   0  0  0  0  0  0  0  0  0  0  0  0
    0.0000    0.0000    0.0000 C   0  0  0  0  0  0  0  0  0  0  0  0
    0.0000    0.0000    0.0000 C   0  0  0  0  0  0  0  0  0  0  0  0
    0.0000    0.0000    0.0000 C   0  0  0  0  0  0  0  0  0  0  0  0
    0.0000    0.0000    0.0000 C   0  0  0  0  0  0  0  0  0  0  0  0
  1  2  1  0
  2  3  1  0
  3  4  1  0
  3  5  1  0
  5  6  1  0
  6  7  1  0
  7  8  2  0
  7  9  1  0
  9 10  1  0
 10 11  1  0
 11 12  1  0
 12 13  1  0
 13 14  1  0
 14 15  1  0
 15 16  1  0
 16 17  1  0
 17 18  1  0
 18 19  1  0
 19 20  1  0
 19 21  1  0
 21 22  1  0
 22 23  1  0
 13 24  1  0
 24 25  1  0
  9 26  1  0
 26 27  2  0
 27 28  1  0
 28 29  2  0
 29 30  1  0
 30 31  2  0
 31  6  1  0
 25 10  1  0
 21 15  1  0
 20 16  1  0
 23 21  1  0
 31 26  1  0
M  END
>  <pIC50>  (561) 
5.35

>  <ChEMBL_ID>  (561) 
CHEMBL564840

>  <document_journal>  (561) 
J. Med. Chem.

>  <bao_endpoint>  (561) 
BAO_0000190

>  <potential_duplicate>  (561) 
False

>  <uo_units>  (561) 
UO_0000065

>  <canonical_smiles>  (561) 
Cl.OC[C@H](O)CN1C(=O)N(C2CCN(C[C@H]3[C@H]4CC[C@H](C4)C35CC5)CC2)c6ccccc16

>  <parent_molecule_chembl_id>  (561) 
CHEMBL1197275

>  <assay_type>  (561) 
B

>  <src_id>  (561) 
1

>  <ligand_efficiency>  (561) 
{u'le': u'0.24', u'bei': u'12.56', u'sei': u'7.95', u'lle': u'3.23'}

>  <standard_flag>  (561) 
True

>  <molecule_chembl_id>  (561) 
CHEMBL564840

>  <target_organism>  (561) 
Homo sapiens

>  <standard_units>  (561) 
nM

>  <record_id>  (561) 
816342

>  <document_chembl_id>  (561) 
CHEMBL1158463

>  <bao_format>  (561) 
BAO_0000219

>  <data_validity_description>  (561) 
None

>  <activity_id>  (561) 
2650085

>  <standard_type>  (561) 
IC50

>  <target_chembl_id>  (561) 
CHEMBL233

>  <data_validity_comment>  (561) 
None

>  <published_value>  (561) 
4500

>  <document_year>  (561) 
2009

>  <target_pref_name>  (561) 
Mu opioid receptor

>  <assay_chembl_id>  (561) 
CHEMBL1025186

>  <standard_relation>  (561) 
=

>  <assay_description>  (561) 
Displacement of [3H]diprenorphine from human cloned mu opioid receptor expressed in CHO cells

>  <published_relation>  (561) 
=

>  <standard_value>  (561) 
4500

>  <qudt_units>  (561) 
http://www.openphacts.org/units/Nanomolar

>  <target_tax_id>  (561) 
9606

>  <bao_label>  (561) 
cell-based format

>  <published_units>  (561) 
nM

>  <pchembl_value>  (561) 
5.35

>  <published_type>  (561) 
IC50

>  <activity_comment>  (561) 
None

$$$$

     RDKit          

 31 36  0  0  0  0  0  0  0  0999 V2000
    0.0000    0.0000    0.0000 O   0  0  0  0  0  0  0  0  0  0  0  0
    0.0000    0.0000    0.0000 C   0  0  0  0  0  0  0  0  0  0  0  0
    0.0000    0.0000    0.0000 C   0  0  0  0  0  0  0  0  0  0  0  0
    0.0000    0.0000    0.0000 O   0  0  0  0  0  0  0  0  0  0  0  0
    0.0000    0.0000    0.0000 C   0  0  0  0  0  0  0  0  0  0  0  0
    0.0000    0.0000    0.0000 N   0  0  0  0  0  0  0  0  0  0  0  0
    0.0000    0.0000    0.0000 C   0  0  0  0  0  0  0  0  0  0  0  0
    0.0000    0.0000    0.0000 O   0  0  0  0  0  0  0  0  0  0  0  0
    0.0000    0.0000    0.0000 N   0  0  0  0  0  0  0  0  0  0  0  0
    0.0000    0.0000    0.0000 C   0  0  0  0  0  0  0  0  0  0  0  0
    0.0000    0.0000    0.0000 C   0  0  0  0  0  0  0  0  0  0  0  0
    0.0000    0.0000    0.0000 C   0  0  0  0  0  0  0  0  0  0  0  0
    0.0000    0.0000    0.0000 N   0  0  0  0  0  0  0  0  0  0  0  0
    0.0000    0.0000    0.0000 C   0  0  0  0  0  0  0  0  0  0  0  0
    0.0000    0.0000    0.0000 C   0  0  0  0  0  0  0  0  0  0  0  0
    0.0000    0.0000    0.0000 C   0  0  0  0  0  0  0  0  0  0  0  0
    0.0000    0.0000    0.0000 C   0  0  0  0  0  0  0  0  0  0  0  0
    0.0000    0.0000    0.0000 C   0  0  0  0  0  0  0  0  0  0  0  0
    0.0000    0.0000    0.0000 C   0  0  0  0  0  0  0  0  0  0  0  0
    0.0000    0.0000    0.0000 C   0  0  0  0  0  0  0  0  0  0  0  0
    0.0000    0.0000    0.0000 C   0  0  0  0  0  0  0  0  0  0  0  0
    0.0000    0.0000    0.0000 C   0  0  0  0  0  0  0  0  0  0  0  0
    0.0000    0.0000    0.0000 C   0  0  0  0  0  0  0  0  0  0  0  0
    0.0000    0.0000    0.0000 C   0  0  0  0  0  0  0  0  0  0  0  0
    0.0000    0.0000    0.0000 C   0  0  0  0  0  0  0  0  0  0  0  0
    0.0000    0.0000    0.0000 C   0  0  0  0  0  0  0  0  0  0  0  0
    0.0000    0.0000    0.0000 C   0  0  0  0  0  0  0  0  0  0  0  0
    0.0000    0.0000    0.0000 C   0  0  0  0  0  0  0  0  0  0  0  0
    0.0000    0.0000    0.0000 C   0  0  0  0  0  0  0  0  0  0  0  0
    0.0000    0.0000    0.0000 C   0  0  0  0  0  0  0  0  0  0  0  0
    0.0000    0.0000    0.0000 C   0  0  0  0  0  0  0  0  0  0  0  0
  1  2  1  0
  2  3  1  0
  3  4  1  0
  3  5  1  0
  5  6  1  0
  6  7  1  0
  7  8  2  0
  7  9  1  0
  9 10  1  0
 10 11  1  0
 11 12  1  0
 12 13  1  0
 13 14  1  0
 14 15  1  0
 15 16  1  0
 16 17  1  0
 17 18  1  0
 18 19  1  0
 19 20  1  0
 19 21  1  0
 21 22  1  0
 22 23  1  0
 13 24  1  0
 24 25  1  0
  9 26  1  0
 26 27  2  0
 27 28  1  0
 28 29  2  0
 29 30  1  0
 30 31  2  0
 31  6  1  0
 25 10  1  0
 21 15  1  0
 20 16  1  0
 23 21  1  0
 31 26  1  0
M  END
>  <pIC50>  (562) 
5.57

>  <ChEMBL_ID>  (562) 
CHEMBL563980

>  <document_journal>  (562) 
J. Med. Chem.

>  <bao_endpoint>  (562) 
BAO_0000190

>  <potential_duplicate>  (562) 
False

>  <uo_units>  (562) 
UO_0000065

>  <canonical_smiles>  (562) 
Cl.OC[C@@H](O)CN1C(=O)N(C2CCN(C[C@H]3[C@H]4CC[C@H](C4)C35CC5)CC2)c6ccccc16

>  <parent_molecule_chembl_id>  (562) 
CHEMBL1197249

>  <assay_type>  (562) 
B

>  <src_id>  (562) 
1

>  <ligand_efficiency>  (562) 
{u'le': u'0.25', u'bei': u'13.09', u'sei': u'8.28', u'lle': u'3.45'}

>  <standard_flag>  (562) 
True

>  <molecule_chembl_id>  (562) 
CHEMBL563980

>  <target_organism>  (562) 
Homo sapiens

>  <standard_units>  (562) 
nM

>  <record_id>  (562) 
816343

>  <document_chembl_id>  (562) 
CHEMBL1158463

>  <bao_format>  (562) 
BAO_0000219

>  <data_validity_description>  (562) 
None

>  <activity_id>  (562) 
2650086

>  <standard_type>  (562) 
IC50

>  <target_chembl_id>  (562) 
CHEMBL233

>  <data_validity_comment>  (562) 
None

>  <published_value>  (562) 
2700

>  <document_year>  (562) 
2009

>  <target_pref_name>  (562) 
Mu opioid receptor

>  <assay_chembl_id>  (562) 
CHEMBL1025186

>  <standard_relation>  (562) 
=

>  <assay_description>  (562) 
Displacement of [3H]diprenorphine from human cloned mu opioid receptor expressed in CHO cells

>  <published_relation>  (562) 
=

>  <standard_value>  (562) 
2700

>  <qudt_units>  (562) 
http://www.openphacts.org/units/Nanomolar

>  <target_tax_id>  (562) 
9606

>  <bao_label>  (562) 
cell-based format

>  <published_units>  (562) 
nM

>  <pchembl_value>  (562) 
5.57

>  <published_type>  (562) 
IC50

>  <activity_comment>  (562) 
None

$$$$

     RDKit          

 31 36  0  0  0  0  0  0  0  0999 V2000
    0.0000    0.0000    0.0000 O   0  0  0  0  0  0  0  0  0  0  0  0
    0.0000    0.0000    0.0000 C   0  0  0  0  0  0  0  0  0  0  0  0
    0.0000    0.0000    0.0000 C   0  0  0  0  0  0  0  0  0  0  0  0
    0.0000    0.0000    0.0000 C   0  0  0  0  0  0  0  0  0  0  0  0
    0.0000    0.0000    0.0000 O   0  0  0  0  0  0  0  0  0  0  0  0
    0.0000    0.0000    0.0000 N   0  0  0  0  0  0  0  0  0  0  0  0
    0.0000    0.0000    0.0000 C   0  0  0  0  0  0  0  0  0  0  0  0
    0.0000    0.0000    0.0000 O   0  0  0  0  0  0  0  0  0  0  0  0
    0.0000    0.0000    0.0000 N   0  0  0  0  0  0  0  0  0  0  0  0
    0.0000    0.0000    0.0000 C   0  0  0  0  0  0  0  0  0  0  0  0
    0.0000    0.0000    0.0000 C   0  0  0  0  0  0  0  0  0  0  0  0
    0.0000    0.0000    0.0000 C   0  0  0  0  0  0  0  0  0  0  0  0
    0.0000    0.0000    0.0000 N   0  0  0  0  0  0  0  0  0  0  0  0
    0.0000    0.0000    0.0000 C   0  0  0  0  0  0  0  0  0  0  0  0
    0.0000    0.0000    0.0000 C   0  0  0  0  0  0  0  0  0  0  0  0
    0.0000    0.0000    0.0000 C   0  0  0  0  0  0  0  0  0  0  0  0
    0.0000    0.0000    0.0000 C   0  0  0  0  0  0  0  0  0  0  0  0
    0.0000    0.0000    0.0000 C   0  0  0  0  0  0  0  0  0  0  0  0
    0.0000    0.0000    0.0000 C   0  0  0  0  0  0  0  0  0  0  0  0
    0.0000    0.0000    0.0000 C   0  0  0  0  0  0  0  0  0  0  0  0
    0.0000    0.0000    0.0000 C   0  0  0  0  0  0  0  0  0  0  0  0
    0.0000    0.0000    0.0000 C   0  0  0  0  0  0  0  0  0  0  0  0
    0.0000    0.0000    0.0000 C   0  0  0  0  0  0  0  0  0  0  0  0
    0.0000    0.0000    0.0000 C   0  0  0  0  0  0  0  0  0  0  0  0
    0.0000    0.0000    0.0000 C   0  0  0  0  0  0  0  0  0  0  0  0
    0.0000    0.0000    0.0000 C   0  0  0  0  0  0  0  0  0  0  0  0
    0.0000    0.0000    0.0000 C   0  0  0  0  0  0  0  0  0  0  0  0
    0.0000    0.0000    0.0000 C   0  0  0  0  0  0  0  0  0  0  0  0
    0.0000    0.0000    0.0000 C   0  0  0  0  0  0  0  0  0  0  0  0
    0.0000    0.0000    0.0000 C   0  0  0  0  0  0  0  0  0  0  0  0
    0.0000    0.0000    0.0000 C   0  0  0  0  0  0  0  0  0  0  0  0
  1  2  1  0
  2  3  1  0
  3  4  1  0
  4  5  1  0
  3  6  1  0
  6  7  1  0
  7  8  2  0
  7  9  1  0
  9 10  1  0
 10 11  1  0
 11 12  1  0
 12 13  1  0
 13 14  1  0
 14 15  1  0
 15 16  1  0
 16 17  1  0
 17 18  1  0
 18 19  1  0
 19 20  1  0
 19 21  1  0
 21 22  1  0
 22 23  1  0
 13 24  1  0
 24 25  1  0
  9 26  1  0
 26 27  2  0
 27 28  1  0
 28 29  2  0
 29 30  1  0
 30 31  2  0
 31  6  1  0
 25 10  1  0
 21 15  1  0
 20 16  1  0
 23 21  1  0
 31 26  1  0
M  END
>  <pIC50>  (563) 
5.21

>  <ChEMBL_ID>  (563) 
CHEMBL563657

>  <document_journal>  (563) 
J. Med. Chem.

>  <bao_endpoint>  (563) 
BAO_0000190

>  <potential_duplicate>  (563) 
False

>  <uo_units>  (563) 
UO_0000065

>  <canonical_smiles>  (563) 
Cl.OCC(CO)N1C(=O)N(C2CCN(C[C@H]3[C@H]4CC[C@H](C4)C35CC5)CC2)c6ccccc16

>  <parent_molecule_chembl_id>  (563) 
CHEMBL1197240

>  <assay_type>  (563) 
B

>  <src_id>  (563) 
1

>  <ligand_efficiency>  (563) 
{u'le': u'0.23', u'bei': u'12.24', u'sei': u'7.74', u'lle': u'3.09'}

>  <standard_flag>  (563) 
True

>  <molecule_chembl_id>  (563) 
CHEMBL563657

>  <target_organism>  (563) 
Homo sapiens

>  <standard_units>  (563) 
nM

>  <record_id>  (563) 
816344

>  <document_chembl_id>  (563) 
CHEMBL1158463

>  <bao_format>  (563) 
BAO_0000219

>  <data_validity_description>  (563) 
None

>  <activity_id>  (563) 
2650087

>  <standard_type>  (563) 
IC50

>  <target_chembl_id>  (563) 
CHEMBL233

>  <data_validity_comment>  (563) 
None

>  <published_value>  (563) 
6200

>  <document_year>  (563) 
2009

>  <target_pref_name>  (563) 
Mu opioid receptor

>  <assay_chembl_id>  (563) 
CHEMBL1025186

>  <standard_relation>  (563) 
=

>  <assay_description>  (563) 
Displacement of [3H]diprenorphine from human cloned mu opioid receptor expressed in CHO cells

>  <published_relation>  (563) 
=

>  <standard_value>  (563) 
6200

>  <qudt_units>  (563) 
http://www.openphacts.org/units/Nanomolar

>  <target_tax_id>  (563) 
9606

>  <bao_label>  (563) 
cell-based format

>  <published_units>  (563) 
nM

>  <pchembl_value>  (563) 
5.21

>  <published_type>  (563) 
IC50

>  <activity_comment>  (563) 
None

$$$$

     RDKit          

 67 70  0  0  0  0  0  0  0  0999 V2000
    0.0000    0.0000    0.0000 N   0  0  0  0  0  0  0  0  0  0  0  0
    0.0000    0.0000    0.0000 C   0  0  0  0  0  0  0  0  0  0  0  0
    0.0000    0.0000    0.0000 C   0  0  0  0  0  0  0  0  0  0  0  0
    0.0000    0.0000    0.0000 C   0  0  0  0  0  0  0  0  0  0  0  0
    0.0000    0.0000    0.0000 C   0  0  0  0  0  0  0  0  0  0  0  0
    0.0000    0.0000    0.0000 C   0  0  0  0  0  0  0  0  0  0  0  0
    0.0000    0.0000    0.0000 C   0  0  0  0  0  0  0  0  0  0  0  0
    0.0000    0.0000    0.0000 O   0  0  0  0  0  0  0  0  0  0  0  0
    0.0000    0.0000    0.0000 C   0  0  0  0  0  0  0  0  0  0  0  0
    0.0000    0.0000    0.0000 C   0  0  0  0  0  0  0  0  0  0  0  0
    0.0000    0.0000    0.0000 C   0  0  0  0  0  0  0  0  0  0  0  0
    0.0000    0.0000    0.0000 O   0  0  0  0  0  0  0  0  0  0  0  0
    0.0000    0.0000    0.0000 N   0  0  0  0  0  0  0  0  0  0  0  0
    0.0000    0.0000    0.0000 C   0  0  0  0  0  0  0  0  0  0  0  0
    0.0000    0.0000    0.0000 C   0  0  0  0  0  0  0  0  0  0  0  0
    0.0000    0.0000    0.0000 C   0  0  0  0  0  0  0  0  0  0  0  0
    0.0000    0.0000    0.0000 C   0  0  0  0  0  0  0  0  0  0  0  0
    0.0000    0.0000    0.0000 N   0  0  0  0  0  0  0  0  0  0  0  0
    0.0000    0.0000    0.0000 N   0  0  0  0  0  0  0  0  0  0  0  0
    0.0000    0.0000    0.0000 C   0  0  0  0  0  0  0  0  0  0  0  0
    0.0000    0.0000    0.0000 S   0  0  0  0  0  0  0  0  0  0  0  0
    0.0000    0.0000    0.0000 N   0  0  0  0  0  0  0  0  0  0  0  0
    0.0000    0.0000    0.0000 C   0  0  0  0  0  0  0  0  0  0  0  0
    0.0000    0.0000    0.0000 S   0  0  0  0  0  0  0  0  0  0  0  0
    0.0000    0.0000    0.0000 C   0  0  0  0  0  0  0  0  0  0  0  0
    0.0000    0.0000    0.0000 O   0  0  0  0  0  0  0  0  0  0  0  0
    0.0000    0.0000    0.0000 N   0  0  0  0  0  0  0  0  0  0  0  0
    0.0000    0.0000    0.0000 C   0  0  0  0  0  0  0  0  0  0  0  0
    0.0000    0.0000    0.0000 C   0  0  0  0  0  0  0  0  0  0  0  0
    0.0000    0.0000    0.0000 C   0  0  0  0  0  0  0  0  0  0  0  0
    0.0000    0.0000    0.0000 C   0  0  0  0  0  0  0  0  0  0  0  0
    0.0000    0.0000    0.0000 C   0  0  0  0  0  0  0  0  0  0  0  0
    0.0000    0.0000    0.0000 C   0  0  0  0  0  0  0  0  0  0  0  0
    0.0000    0.0000    0.0000 C   0  0  0  0  0  0  0  0  0  0  0  0
    0.0000    0.0000    0.0000 C   0  0  0  0  0  0  0  0  0  0  0  0
    0.0000    0.0000    0.0000 C   0  0  0  0  0  0  0  0  0  0  0  0
    0.0000    0.0000    0.0000 O   0  0  0  0  0  0  0  0  0  0  0  0
    0.0000    0.0000    0.0000 N   0  0  0  0  0  0  0  0  0  0  0  0
    0.0000    0.0000    0.0000 C   0  0  0  0  0  0  0  0  0  0  0  0
    0.0000    0.0000    0.0000 C   0  0  0  0  0  0  0  0  0  0  0  0
    0.0000    0.0000    0.0000 O   0  0  0  0  0  0  0  0  0  0  0  0
    0.0000    0.0000    0.0000 N   0  0  0  0  0  0  0  0  0  0  0  0
    0.0000    0.0000    0.0000 C   0  0  0  0  0  0  0  0  0  0  0  0
    0.0000    0.0000    0.0000 C   0  0  0  0  0  0  0  0  0  0  0  0
    0.0000    0.0000    0.0000 C   0  0  0  0  0  0  0  0  0  0  0  0
    0.0000    0.0000    0.0000 C   0  0  0  0  0  0  0  0  0  0  0  0
    0.0000    0.0000    0.0000 C   0  0  0  0  0  0  0  0  0  0  0  0
    0.0000    0.0000    0.0000 C   0  0  0  0  0  0  0  0  0  0  0  0
    0.0000    0.0000    0.0000 O   0  0  0  0  0  0  0  0  0  0  0  0
    0.0000    0.0000    0.0000 C   0  0  0  0  0  0  0  0  0  0  0  0
    0.0000    0.0000    0.0000 C   0  0  0  0  0  0  0  0  0  0  0  0
    0.0000    0.0000    0.0000 C   0  0  0  0  0  0  0  0  0  0  0  0
    0.0000    0.0000    0.0000 O   0  0  0  0  0  0  0  0  0  0  0  0
    0.0000    0.0000    0.0000 N   0  0  0  0  0  0  0  0  0  0  0  0
    0.0000    0.0000    0.0000 C   0  0  0  0  0  0  0  0  0  0  0  0
    0.0000    0.0000    0.0000 C   0  0  0  0  0  0  0  0  0  0  0  0
    0.0000    0.0000    0.0000 C   0  0  0  0  0  0  0  0  0  0  0  0
    0.0000    0.0000    0.0000 C   0  0  0  0  0  0  0  0  0  0  0  0
    0.0000    0.0000    0.0000 C   0  0  0  0  0  0  0  0  0  0  0  0
    0.0000    0.0000    0.0000 O   0  0  0  0  0  0  0  0  0  0  0  0
    0.0000    0.0000    0.0000 N   0  0  0  0  0  0  0  0  0  0  0  0
    0.0000    0.0000    0.0000 C   0  0  0  0  0  0  0  0  0  0  0  0
    0.0000    0.0000    0.0000 C   0  0  0  0  0  0  0  0  0  0  0  0
    0.0000    0.0000    0.0000 O   0  0  0  0  0  0  0  0  0  0  0  0
    0.0000    0.0000    0.0000 C   0  0  0  0  0  0  0  0  0  0  0  0
    0.0000    0.0000    0.0000 O   0  0  0  0  0  0  0  0  0  0  0  0
    0.0000    0.0000    0.0000 O   0  0  0  0  0  0  0  0  0  0  0  0
  1  2  1  0
  2  3  1  0
  3  4  1  0
  4  5  2  0
  5  6  1  0
  6  7  2  0
  7  8  1  0
  7  9  1  0
  9 10  2  0
  2 11  1  0
 11 12  2  0
 11 13  1  0
 13 14  1  0
 14 15  1  0
 15 16  1  0
 16 17  1  0
 17 18  1  0
 18 19  1  0
 19 20  2  3
 20 21  2  0
 18 22  1  0
 22 23  2  3
 23 24  2  0
 14 25  1  0
 25 26  2  0
 25 27  1  0
 27 28  1  0
 28 29  1  0
 29 30  1  0
 30 31  2  0
 31 32  1  0
 32 33  2  0
 33 34  1  0
 34 35  2  0
 28 36  1  0
 36 37  2  0
 36 38  1  0
 38 39  1  0
 39 40  1  0
 40 41  2  0
 40 42  1  0
 42 43  1  0
 43 44  1  0
 44 45  1  0
 45 46  2  0
 46 47  1  0
 47 48  2  0
 48 49  1  0
 48 50  1  0
 50 51  2  0
 43 52  1  0
 52 53  2  0
 52 54  1  0
 54 55  1  0
 55 56  1  0
 56 57  1  0
 57 58  1  0
 58 59  1  0
 59 60  2  0
 59 61  1  0
 61 62  1  0
 62 63  1  0
 63 64  1  0
 62 65  1  0
 65 66  2  0
 65 67  1  0
 10  4  1  0
 35 30  1  0
 51 45  1  0
 58 54  1  0
M  END
>  <pIC50>  (564) 
9.09

>  <ChEMBL_ID>  (564) 
CHEMBL584993

>  <document_journal>  (564) 
J. Med. Chem.

>  <bao_endpoint>  (564) 
BAO_0000190

>  <potential_duplicate>  (564) 
False

>  <uo_units>  (564) 
UO_0000065

>  <canonical_smiles>  (564) 
N[C@@H](Cc1ccc(O)cc1)C(=O)N[C@H](CCCN(N=C=S)N=C=S)C(=O)N[C@@H](Cc2ccccc2)C(=O)NCC(=O)N[C@@H](Cc3ccc(O)cc3)C(=O)N4CCC[C@H]4C(=O)N[C@@H](CO)C(=O)O

>  <parent_molecule_chembl_id>  (564) 
CHEMBL584993

>  <assay_type>  (564) 
B

>  <src_id>  (564) 
1

>  <ligand_efficiency>  (564) 
{u'le': u'0.19', u'bei': u'9.46', u'sei': u'2.38', u'lle': u'10.21'}

>  <standard_flag>  (564) 
True

>  <molecule_chembl_id>  (564) 
CHEMBL584993

>  <target_organism>  (564) 
Homo sapiens

>  <standard_units>  (564) 
nM

>  <record_id>  (564) 
852975

>  <document_chembl_id>  (564) 
CHEMBL1154775

>  <bao_format>  (564) 
BAO_0000219

>  <data_validity_description>  (564) 
None

>  <activity_id>  (564) 
2928918

>  <standard_type>  (564) 
IC50

>  <target_chembl_id>  (564) 
CHEMBL233

>  <data_validity_comment>  (564) 
None

>  <published_value>  (564) 
0.81

>  <document_year>  (564) 
2009

>  <target_pref_name>  (564) 
Mu opioid receptor

>  <assay_chembl_id>  (564) 
CHEMBL1058518

>  <standard_relation>  (564) 
=

>  <assay_description>  (564) 
Displacement of [3H]DAMGO from mu opioid receptor expressed in CHO cells after 90 mins by scintillation counting

>  <published_relation>  (564) 
=

>  <standard_value>  (564) 
0.81

>  <qudt_units>  (564) 
http://www.openphacts.org/units/Nanomolar

>  <target_tax_id>  (564) 
9606

>  <bao_label>  (564) 
cell-based format

>  <published_units>  (564) 
nM

>  <pchembl_value>  (564) 
9.09

>  <published_type>  (564) 
IC50

>  <activity_comment>  (564) 
None

$$$$

     RDKit          

 69 72  0  0  0  0  0  0  0  0999 V2000
    0.0000    0.0000    0.0000 N   0  0  0  0  0  0  0  0  0  0  0  0
    0.0000    0.0000    0.0000 C   0  0  0  0  0  0  0  0  0  0  0  0
    0.0000    0.0000    0.0000 C   0  0  0  0  0  0  0  0  0  0  0  0
    0.0000    0.0000    0.0000 C   0  0  0  0  0  0  0  0  0  0  0  0
    0.0000    0.0000    0.0000 C   0  0  0  0  0  0  0  0  0  0  0  0
    0.0000    0.0000    0.0000 C   0  0  0  0  0  0  0  0  0  0  0  0
    0.0000    0.0000    0.0000 C   0  0  0  0  0  0  0  0  0  0  0  0
    0.0000    0.0000    0.0000 O   0  0  0  0  0  0  0  0  0  0  0  0
    0.0000    0.0000    0.0000 C   0  0  0  0  0  0  0  0  0  0  0  0
    0.0000    0.0000    0.0000 C   0  0  0  0  0  0  0  0  0  0  0  0
    0.0000    0.0000    0.0000 C   0  0  0  0  0  0  0  0  0  0  0  0
    0.0000    0.0000    0.0000 O   0  0  0  0  0  0  0  0  0  0  0  0
    0.0000    0.0000    0.0000 N   0  0  0  0  0  0  0  0  0  0  0  0
    0.0000    0.0000    0.0000 C   0  0  0  0  0  0  0  0  0  0  0  0
    0.0000    0.0000    0.0000 C   0  0  0  0  0  0  0  0  0  0  0  0
    0.0000    0.0000    0.0000 C   0  0  0  0  0  0  0  0  0  0  0  0
    0.0000    0.0000    0.0000 C   0  0  0  0  0  0  0  0  0  0  0  0
    0.0000    0.0000    0.0000 N   0  0  0  0  0  0  0  0  0  0  0  0
    0.0000    0.0000    0.0000 C   0  0  0  0  0  0  0  0  0  0  0  0
    0.0000    0.0000    0.0000 O   0  0  0  0  0  0  0  0  0  0  0  0
    0.0000    0.0000    0.0000 C   0  0  0  0  0  0  0  0  0  0  0  0
    0.0000    0.0000    0.0000 Br  0  0  0  0  0  0  0  0  0  0  0  0
    0.0000    0.0000    0.0000 C   0  0  0  0  0  0  0  0  0  0  0  0
    0.0000    0.0000    0.0000 O   0  0  0  0  0  0  0  0  0  0  0  0
    0.0000    0.0000    0.0000 C   0  0  0  0  0  0  0  0  0  0  0  0
    0.0000    0.0000    0.0000 Br  0  0  0  0  0  0  0  0  0  0  0  0
    0.0000    0.0000    0.0000 C   0  0  0  0  0  0  0  0  0  0  0  0
    0.0000    0.0000    0.0000 O   0  0  0  0  0  0  0  0  0  0  0  0
    0.0000    0.0000    0.0000 N   0  0  0  0  0  0  0  0  0  0  0  0
    0.0000    0.0000    0.0000 C   0  0  0  0  0  0  0  0  0  0  0  0
    0.0000    0.0000    0.0000 C   0  0  0  0  0  0  0  0  0  0  0  0
    0.0000    0.0000    0.0000 C   0  0  0  0  0  0  0  0  0  0  0  0
    0.0000    0.0000    0.0000 C   0  0  0  0  0  0  0  0  0  0  0  0
    0.0000    0.0000    0.0000 C   0  0  0  0  0  0  0  0  0  0  0  0
    0.0000    0.0000    0.0000 C   0  0  0  0  0  0  0  0  0  0  0  0
    0.0000    0.0000    0.0000 C   0  0  0  0  0  0  0  0  0  0  0  0
    0.0000    0.0000    0.0000 C   0  0  0  0  0  0  0  0  0  0  0  0
    0.0000    0.0000    0.0000 C   0  0  0  0  0  0  0  0  0  0  0  0
    0.0000    0.0000    0.0000 O   0  0  0  0  0  0  0  0  0  0  0  0
    0.0000    0.0000    0.0000 N   0  0  0  0  0  0  0  0  0  0  0  0
    0.0000    0.0000    0.0000 C   0  0  0  0  0  0  0  0  0  0  0  0
    0.0000    0.0000    0.0000 C   0  0  0  0  0  0  0  0  0  0  0  0
    0.0000    0.0000    0.0000 O   0  0  0  0  0  0  0  0  0  0  0  0
    0.0000    0.0000    0.0000 N   0  0  0  0  0  0  0  0  0  0  0  0
    0.0000    0.0000    0.0000 C   0  0  0  0  0  0  0  0  0  0  0  0
    0.0000    0.0000    0.0000 C   0  0  0  0  0  0  0  0  0  0  0  0
    0.0000    0.0000    0.0000 C   0  0  0  0  0  0  0  0  0  0  0  0
    0.0000    0.0000    0.0000 C   0  0  0  0  0  0  0  0  0  0  0  0
    0.0000    0.0000    0.0000 C   0  0  0  0  0  0  0  0  0  0  0  0
    0.0000    0.0000    0.0000 C   0  0  0  0  0  0  0  0  0  0  0  0
    0.0000    0.0000    0.0000 O   0  0  0  0  0  0  0  0  0  0  0  0
    0.0000    0.0000    0.0000 C   0  0  0  0  0  0  0  0  0  0  0  0
    0.0000    0.0000    0.0000 C   0  0  0  0  0  0  0  0  0  0  0  0
    0.0000    0.0000    0.0000 C   0  0  0  0  0  0  0  0  0  0  0  0
    0.0000    0.0000    0.0000 O   0  0  0  0  0  0  0  0  0  0  0  0
    0.0000    0.0000    0.0000 N   0  0  0  0  0  0  0  0  0  0  0  0
    0.0000    0.0000    0.0000 C   0  0  0  0  0  0  0  0  0  0  0  0
    0.0000    0.0000    0.0000 C   0  0  0  0  0  0  0  0  0  0  0  0
    0.0000    0.0000    0.0000 C   0  0  0  0  0  0  0  0  0  0  0  0
    0.0000    0.0000    0.0000 C   0  0  0  0  0  0  0  0  0  0  0  0
    0.0000    0.0000    0.0000 C   0  0  0  0  0  0  0  0  0  0  0  0
    0.0000    0.0000    0.0000 O   0  0  0  0  0  0  0  0  0  0  0  0
    0.0000    0.0000    0.0000 N   0  0  0  0  0  0  0  0  0  0  0  0
    0.0000    0.0000    0.0000 C   0  0  0  0  0  0  0  0  0  0  0  0
    0.0000    0.0000    0.0000 C   0  0  0  0  0  0  0  0  0  0  0  0
    0.0000    0.0000    0.0000 O   0  0  0  0  0  0  0  0  0  0  0  0
    0.0000    0.0000    0.0000 C   0  0  0  0  0  0  0  0  0  0  0  0
    0.0000    0.0000    0.0000 O   0  0  0  0  0  0  0  0  0  0  0  0
    0.0000    0.0000    0.0000 O   0  0  0  0  0  0  0  0  0  0  0  0
  1  2  1  0
  2  3  1  0
  3  4  1  0
  4  5  2  0
  5  6  1  0
  6  7  2  0
  7  8  1  0
  7  9  1  0
  9 10  2  0
  2 11  1  0
 11 12  2  0
 11 13  1  0
 13 14  1  0
 14 15  1  0
 15 16  1  0
 16 17  1  0
 17 18  1  0
 18 19  1  0
 19 20  2  0
 19 21  1  0
 21 22  1  0
 18 23  1  0
 23 24  2  0
 23 25  1  0
 25 26  1  0
 14 27  1  0
 27 28  2  0
 27 29  1  0
 29 30  1  0
 30 31  1  0
 31 32  1  0
 32 33  2  0
 33 34  1  0
 34 35  2  0
 35 36  1  0
 36 37  2  0
 30 38  1  0
 38 39  2  0
 38 40  1  0
 40 41  1  0
 41 42  1  0
 42 43  2  0
 42 44  1  0
 44 45  1  0
 45 46  1  0
 46 47  1  0
 47 48  2  0
 48 49  1  0
 49 50  2  0
 50 51  1  0
 50 52  1  0
 52 53  2  0
 45 54  1  0
 54 55  2  0
 54 56  1  0
 56 57  1  0
 57 58  1  0
 58 59  1  0
 59 60  1  0
 60 61  1  0
 61 62  2  0
 61 63  1  0
 63 64  1  0
 64 65  1  0
 65 66  1  0
 64 67  1  0
 67 68  2  0
 67 69  1  0
 10  4  1  0
 37 32  1  0
 53 47  1  0
 60 56  1  0
M  END
>  <pIC50>  (565) 
9.96

>  <ChEMBL_ID>  (565) 
CHEMBL574142

>  <document_journal>  (565) 
J. Med. Chem.

>  <bao_endpoint>  (565) 
BAO_0000190

>  <potential_duplicate>  (565) 
False

>  <uo_units>  (565) 
UO_0000065

>  <canonical_smiles>  (565) 
N[C@@H](Cc1ccc(O)cc1)C(=O)N[C@H](CCCN(C(=O)CBr)C(=O)CBr)C(=O)N[C@@H](Cc2ccccc2)C(=O)NCC(=O)N[C@@H](Cc3ccc(O)cc3)C(=O)N4CCC[C@H]4C(=O)N[C@@H](CO)C(=O)O

>  <parent_molecule_chembl_id>  (565) 
CHEMBL574142

>  <assay_type>  (565) 
B

>  <src_id>  (565) 
1

>  <ligand_efficiency>  (565) 
{u'le': None, u'bei': u'9.15', u'sei': None, u'lle': None}

>  <standard_flag>  (565) 
True

>  <molecule_chembl_id>  (565) 
CHEMBL574142

>  <target_organism>  (565) 
Homo sapiens

>  <standard_units>  (565) 
nM

>  <record_id>  (565) 
852976

>  <document_chembl_id>  (565) 
CHEMBL1154775

>  <bao_format>  (565) 
BAO_0000219

>  <data_validity_description>  (565) 
None

>  <activity_id>  (565) 
2928922

>  <standard_type>  (565) 
IC50

>  <target_chembl_id>  (565) 
CHEMBL233

>  <data_validity_comment>  (565) 
None

>  <published_value>  (565) 
0.11

>  <document_year>  (565) 
2009

>  <target_pref_name>  (565) 
Mu opioid receptor

>  <assay_chembl_id>  (565) 
CHEMBL1058518

>  <standard_relation>  (565) 
=

>  <assay_description>  (565) 
Displacement of [3H]DAMGO from mu opioid receptor expressed in CHO cells after 90 mins by scintillation counting

>  <published_relation>  (565) 
=

>  <standard_value>  (565) 
0.11

>  <qudt_units>  (565) 
http://www.openphacts.org/units/Nanomolar

>  <target_tax_id>  (565) 
9606

>  <bao_label>  (565) 
cell-based format

>  <published_units>  (565) 
nM

>  <pchembl_value>  (565) 
9.96

>  <published_type>  (565) 
IC50

>  <activity_comment>  (565) 
None

$$$$

     RDKit          

 67 70  0  0  0  0  0  0  0  0999 V2000
    0.0000    0.0000    0.0000 C   0  0  0  0  0  0  0  0  0  0  0  0
    0.0000    0.0000    0.0000 C   0  0  0  0  0  0  0  0  0  0  0  0
    0.0000    0.0000    0.0000 O   0  0  0  0  0  0  0  0  0  0  0  0
    0.0000    0.0000    0.0000 N   0  0  0  0  0  0  0  0  0  0  0  0
    0.0000    0.0000    0.0000 C   0  0  0  0  0  0  0  0  0  0  0  0
    0.0000    0.0000    0.0000 C   0  0  0  0  0  0  0  0  0  0  0  0
    0.0000    0.0000    0.0000 C   0  0  0  0  0  0  0  0  0  0  0  0
    0.0000    0.0000    0.0000 C   0  0  0  0  0  0  0  0  0  0  0  0
    0.0000    0.0000    0.0000 N   0  0  0  0  0  0  0  0  0  0  0  0
    0.0000    0.0000    0.0000 C   0  0  0  0  0  0  0  0  0  0  0  0
    0.0000    0.0000    0.0000 O   0  0  0  0  0  0  0  0  0  0  0  0
    0.0000    0.0000    0.0000 C   0  0  0  0  0  0  0  0  0  0  0  0
    0.0000    0.0000    0.0000 N   0  0  0  0  0  0  0  0  0  0  0  0
    0.0000    0.0000    0.0000 C   0  0  0  0  0  0  0  0  0  0  0  0
    0.0000    0.0000    0.0000 C   0  0  0  0  0  0  0  0  0  0  0  0
    0.0000    0.0000    0.0000 C   0  0  0  0  0  0  0  0  0  0  0  0
    0.0000    0.0000    0.0000 C   0  0  0  0  0  0  0  0  0  0  0  0
    0.0000    0.0000    0.0000 C   0  0  0  0  0  0  0  0  0  0  0  0
    0.0000    0.0000    0.0000 O   0  0  0  0  0  0  0  0  0  0  0  0
    0.0000    0.0000    0.0000 C   0  0  0  0  0  0  0  0  0  0  0  0
    0.0000    0.0000    0.0000 C   0  0  0  0  0  0  0  0  0  0  0  0
    0.0000    0.0000    0.0000 C   0  0  0  0  0  0  0  0  0  0  0  0
    0.0000    0.0000    0.0000 O   0  0  0  0  0  0  0  0  0  0  0  0
    0.0000    0.0000    0.0000 N   0  0  0  0  0  0  0  0  0  0  0  0
    0.0000    0.0000    0.0000 C   0  0  0  0  0  0  0  0  0  0  0  0
    0.0000    0.0000    0.0000 C   0  0  0  0  0  0  0  0  0  0  0  0
    0.0000    0.0000    0.0000 C   0  0  0  0  0  0  0  0  0  0  0  0
    0.0000    0.0000    0.0000 C   0  0  0  0  0  0  0  0  0  0  0  0
    0.0000    0.0000    0.0000 C   0  0  0  0  0  0  0  0  0  0  0  0
    0.0000    0.0000    0.0000 C   0  0  0  0  0  0  0  0  0  0  0  0
    0.0000    0.0000    0.0000 C   0  0  0  0  0  0  0  0  0  0  0  0
    0.0000    0.0000    0.0000 C   0  0  0  0  0  0  0  0  0  0  0  0
    0.0000    0.0000    0.0000 C   0  0  0  0  0  0  0  0  0  0  0  0
    0.0000    0.0000    0.0000 O   0  0  0  0  0  0  0  0  0  0  0  0
    0.0000    0.0000    0.0000 N   0  0  0  0  0  0  0  0  0  0  0  0
    0.0000    0.0000    0.0000 C   0  0  0  0  0  0  0  0  0  0  0  0
    0.0000    0.0000    0.0000 C   0  0  0  0  0  0  0  0  0  0  0  0
    0.0000    0.0000    0.0000 O   0  0  0  0  0  0  0  0  0  0  0  0
    0.0000    0.0000    0.0000 N   0  0  0  0  0  0  0  0  0  0  0  0
    0.0000    0.0000    0.0000 C   0  0  0  0  0  0  0  0  0  0  0  0
    0.0000    0.0000    0.0000 C   0  0  0  0  0  0  0  0  0  0  0  0
    0.0000    0.0000    0.0000 C   0  0  0  0  0  0  0  0  0  0  0  0
    0.0000    0.0000    0.0000 C   0  0  0  0  0  0  0  0  0  0  0  0
    0.0000    0.0000    0.0000 C   0  0  0  0  0  0  0  0  0  0  0  0
    0.0000    0.0000    0.0000 C   0  0  0  0  0  0  0  0  0  0  0  0
    0.0000    0.0000    0.0000 O   0  0  0  0  0  0  0  0  0  0  0  0
    0.0000    0.0000    0.0000 C   0  0  0  0  0  0  0  0  0  0  0  0
    0.0000    0.0000    0.0000 C   0  0  0  0  0  0  0  0  0  0  0  0
    0.0000    0.0000    0.0000 C   0  0  0  0  0  0  0  0  0  0  0  0
    0.0000    0.0000    0.0000 O   0  0  0  0  0  0  0  0  0  0  0  0
    0.0000    0.0000    0.0000 N   0  0  0  0  0  0  0  0  0  0  0  0
    0.0000    0.0000    0.0000 C   0  0  0  0  0  0  0  0  0  0  0  0
    0.0000    0.0000    0.0000 C   0  0  0  0  0  0  0  0  0  0  0  0
    0.0000    0.0000    0.0000 C   0  0  0  0  0  0  0  0  0  0  0  0
    0.0000    0.0000    0.0000 C   0  0  0  0  0  0  0  0  0  0  0  0
    0.0000    0.0000    0.0000 C   0  0  0  0  0  0  0  0  0  0  0  0
    0.0000    0.0000    0.0000 O   0  0  0  0  0  0  0  0  0  0  0  0
    0.0000    0.0000    0.0000 N   0  0  0  0  0  0  0  0  0  0  0  0
    0.0000    0.0000    0.0000 C   0  0  0  0  0  0  0  0  0  0  0  0
    0.0000    0.0000    0.0000 C   0  0  0  0  0  0  0  0  0  0  0  0
    0.0000    0.0000    0.0000 O   0  0  0  0  0  0  0  0  0  0  0  0
    0.0000    0.0000    0.0000 C   0  0  0  0  0  0  0  0  0  0  0  0
    0.0000    0.0000    0.0000 O   0  0  0  0  0  0  0  0  0  0  0  0
    0.0000    0.0000    0.0000 O   0  0  0  0  0  0  0  0  0  0  0  0
    0.0000    0.0000    0.0000 C   0  0  0  0  0  0  0  0  0  0  0  0
    0.0000    0.0000    0.0000 O   0  0  0  0  0  0  0  0  0  0  0  0
    0.0000    0.0000    0.0000 C   0  0  0  0  0  0  0  0  0  0  0  0
  1  2  1  0
  2  3  2  0
  2  4  1  0
  4  5  1  0
  5  6  1  0
  6  7  1  0
  7  8  1  0
  8  9  1  0
  9 10  1  0
 10 11  2  0
 10 12  1  0
 12 13  1  0
 12 14  1  0
 14 15  1  0
 15 16  2  0
 16 17  1  0
 17 18  2  0
 18 19  1  0
 18 20  1  0
 20 21  2  0
  8 22  1  0
 22 23  2  0
 22 24  1  0
 24 25  1  0
 25 26  1  0
 26 27  1  0
 27 28  2  0
 28 29  1  0
 29 30  2  0
 30 31  1  0
 31 32  2  0
 25 33  1  0
 33 34  2  0
 33 35  1  0
 35 36  1  0
 36 37  1  0
 37 38  2  0
 37 39  1  0
 39 40  1  0
 40 41  1  0
 41 42  1  0
 42 43  2  0
 43 44  1  0
 44 45  2  0
 45 46  1  0
 45 47  1  0
 47 48  2  0
 40 49  1  0
 49 50  2  0
 49 51  1  0
 51 52  1  0
 52 53  1  0
 53 54  1  0
 54 55  1  0
 55 56  1  0
 56 57  2  0
 56 58  1  0
 58 59  1  0
 59 60  1  0
 60 61  1  0
 59 62  1  0
 62 63  2  0
 62 64  1  0
  4 65  1  0
 65 66  2  0
 65 67  1  0
 21 15  1  0
 32 27  1  0
 48 42  1  0
 55 51  1  0
M  END
>  <pIC50>  (566) 
8.37

>  <ChEMBL_ID>  (566) 
CHEMBL584994

>  <document_journal>  (566) 
J. Med. Chem.

>  <bao_endpoint>  (566) 
BAO_0000190

>  <potential_duplicate>  (566) 
False

>  <uo_units>  (566) 
UO_0000065

>  <canonical_smiles>  (566) 
CC(=O)N(CCC[C@@H](NC(=O)[C@@H](N)Cc1ccc(O)cc1)C(=O)N[C@@H](Cc2ccccc2)C(=O)NCC(=O)N[C@@H](Cc3ccc(O)cc3)C(=O)N4CCC[C@H]4C(=O)N[C@@H](CO)C(=O)O)C(=O)C

>  <parent_molecule_chembl_id>  (566) 
CHEMBL584994

>  <assay_type>  (566) 
B

>  <src_id>  (566) 
1

>  <ligand_efficiency>  (566) 
{u'le': u'0.17', u'bei': u'8.99', u'sei': u'2.56', u'lle': u'11.66'}

>  <standard_flag>  (566) 
True

>  <molecule_chembl_id>  (566) 
CHEMBL584994

>  <target_organism>  (566) 
Homo sapiens

>  <standard_units>  (566) 
nM

>  <record_id>  (566) 
852977

>  <document_chembl_id>  (566) 
CHEMBL1154775

>  <bao_format>  (566) 
BAO_0000219

>  <data_validity_description>  (566) 
None

>  <activity_id>  (566) 
2928926

>  <standard_type>  (566) 
IC50

>  <target_chembl_id>  (566) 
CHEMBL233

>  <data_validity_comment>  (566) 
None

>  <published_value>  (566) 
4.25

>  <document_year>  (566) 
2009

>  <target_pref_name>  (566) 
Mu opioid receptor

>  <assay_chembl_id>  (566) 
CHEMBL1058518

>  <standard_relation>  (566) 
=

>  <assay_description>  (566) 
Displacement of [3H]DAMGO from mu opioid receptor expressed in CHO cells after 90 mins by scintillation counting

>  <published_relation>  (566) 
=

>  <standard_value>  (566) 
4.25

>  <qudt_units>  (566) 
http://www.openphacts.org/units/Nanomolar

>  <target_tax_id>  (566) 
9606

>  <bao_label>  (566) 
cell-based format

>  <published_units>  (566) 
nM

>  <pchembl_value>  (566) 
8.37

>  <published_type>  (566) 
IC50

>  <activity_comment>  (566) 
None

$$$$

     RDKit          

 68 71  0  0  0  0  0  0  0  0999 V2000
    0.0000    0.0000    0.0000 N   0  0  0  0  0  0  0  0  0  0  0  0
    0.0000    0.0000    0.0000 C   0  0  0  0  0  0  0  0  0  0  0  0
    0.0000    0.0000    0.0000 C   0  0  0  0  0  0  0  0  0  0  0  0
    0.0000    0.0000    0.0000 C   0  0  0  0  0  0  0  0  0  0  0  0
    0.0000    0.0000    0.0000 C   0  0  0  0  0  0  0  0  0  0  0  0
    0.0000    0.0000    0.0000 C   0  0  0  0  0  0  0  0  0  0  0  0
    0.0000    0.0000    0.0000 C   0  0  0  0  0  0  0  0  0  0  0  0
    0.0000    0.0000    0.0000 O   0  0  0  0  0  0  0  0  0  0  0  0
    0.0000    0.0000    0.0000 C   0  0  0  0  0  0  0  0  0  0  0  0
    0.0000    0.0000    0.0000 C   0  0  0  0  0  0  0  0  0  0  0  0
    0.0000    0.0000    0.0000 C   0  0  0  0  0  0  0  0  0  0  0  0
    0.0000    0.0000    0.0000 O   0  0  0  0  0  0  0  0  0  0  0  0
    0.0000    0.0000    0.0000 N   0  0  0  0  0  0  0  0  0  0  0  0
    0.0000    0.0000    0.0000 C   0  0  0  0  0  0  0  0  0  0  0  0
    0.0000    0.0000    0.0000 C   0  0  0  0  0  0  0  0  0  0  0  0
    0.0000    0.0000    0.0000 C   0  0  0  0  0  0  0  0  0  0  0  0
    0.0000    0.0000    0.0000 C   0  0  0  0  0  0  0  0  0  0  0  0
    0.0000    0.0000    0.0000 C   0  0  0  0  0  0  0  0  0  0  0  0
    0.0000    0.0000    0.0000 N   0  0  0  0  0  0  0  0  0  0  0  0
    0.0000    0.0000    0.0000 N   0  0  0  0  0  0  0  0  0  0  0  0
    0.0000    0.0000    0.0000 C   0  0  0  0  0  0  0  0  0  0  0  0
    0.0000    0.0000    0.0000 S   0  0  0  0  0  0  0  0  0  0  0  0
    0.0000    0.0000    0.0000 N   0  0  0  0  0  0  0  0  0  0  0  0
    0.0000    0.0000    0.0000 C   0  0  0  0  0  0  0  0  0  0  0  0
    0.0000    0.0000    0.0000 S   0  0  0  0  0  0  0  0  0  0  0  0
    0.0000    0.0000    0.0000 C   0  0  0  0  0  0  0  0  0  0  0  0
    0.0000    0.0000    0.0000 O   0  0  0  0  0  0  0  0  0  0  0  0
    0.0000    0.0000    0.0000 N   0  0  0  0  0  0  0  0  0  0  0  0
    0.0000    0.0000    0.0000 C   0  0  0  0  0  0  0  0  0  0  0  0
    0.0000    0.0000    0.0000 C   0  0  0  0  0  0  0  0  0  0  0  0
    0.0000    0.0000    0.0000 C   0  0  0  0  0  0  0  0  0  0  0  0
    0.0000    0.0000    0.0000 C   0  0  0  0  0  0  0  0  0  0  0  0
    0.0000    0.0000    0.0000 C   0  0  0  0  0  0  0  0  0  0  0  0
    0.0000    0.0000    0.0000 C   0  0  0  0  0  0  0  0  0  0  0  0
    0.0000    0.0000    0.0000 C   0  0  0  0  0  0  0  0  0  0  0  0
    0.0000    0.0000    0.0000 C   0  0  0  0  0  0  0  0  0  0  0  0
    0.0000    0.0000    0.0000 C   0  0  0  0  0  0  0  0  0  0  0  0
    0.0000    0.0000    0.0000 O   0  0  0  0  0  0  0  0  0  0  0  0
    0.0000    0.0000    0.0000 N   0  0  0  0  0  0  0  0  0  0  0  0
    0.0000    0.0000    0.0000 C   0  0  0  0  0  0  0  0  0  0  0  0
    0.0000    0.0000    0.0000 C   0  0  0  0  0  0  0  0  0  0  0  0
    0.0000    0.0000    0.0000 O   0  0  0  0  0  0  0  0  0  0  0  0
    0.0000    0.0000    0.0000 N   0  0  0  0  0  0  0  0  0  0  0  0
    0.0000    0.0000    0.0000 C   0  0  0  0  0  0  0  0  0  0  0  0
    0.0000    0.0000    0.0000 C   0  0  0  0  0  0  0  0  0  0  0  0
    0.0000    0.0000    0.0000 C   0  0  0  0  0  0  0  0  0  0  0  0
    0.0000    0.0000    0.0000 C   0  0  0  0  0  0  0  0  0  0  0  0
    0.0000    0.0000    0.0000 C   0  0  0  0  0  0  0  0  0  0  0  0
    0.0000    0.0000    0.0000 C   0  0  0  0  0  0  0  0  0  0  0  0
    0.0000    0.0000    0.0000 O   0  0  0  0  0  0  0  0  0  0  0  0
    0.0000    0.0000    0.0000 C   0  0  0  0  0  0  0  0  0  0  0  0
    0.0000    0.0000    0.0000 C   0  0  0  0  0  0  0  0  0  0  0  0
    0.0000    0.0000    0.0000 C   0  0  0  0  0  0  0  0  0  0  0  0
    0.0000    0.0000    0.0000 O   0  0  0  0  0  0  0  0  0  0  0  0
    0.0000    0.0000    0.0000 N   0  0  0  0  0  0  0  0  0  0  0  0
    0.0000    0.0000    0.0000 C   0  0  0  0  0  0  0  0  0  0  0  0
    0.0000    0.0000    0.0000 C   0  0  0  0  0  0  0  0  0  0  0  0
    0.0000    0.0000    0.0000 C   0  0  0  0  0  0  0  0  0  0  0  0
    0.0000    0.0000    0.0000 C   0  0  0  0  0  0  0  0  0  0  0  0
    0.0000    0.0000    0.0000 C   0  0  0  0  0  0  0  0  0  0  0  0
    0.0000    0.0000    0.0000 O   0  0  0  0  0  0  0  0  0  0  0  0
    0.0000    0.0000    0.0000 N   0  0  0  0  0  0  0  0  0  0  0  0
    0.0000    0.0000    0.0000 C   0  0  0  0  0  0  0  0  0  0  0  0
    0.0000    0.0000    0.0000 C   0  0  0  0  0  0  0  0  0  0  0  0
    0.0000    0.0000    0.0000 O   0  0  0  0  0  0  0  0  0  0  0  0
    0.0000    0.0000    0.0000 C   0  0  0  0  0  0  0  0  0  0  0  0
    0.0000    0.0000    0.0000 O   0  0  0  0  0  0  0  0  0  0  0  0
    0.0000    0.0000    0.0000 O   0  0  0  0  0  0  0  0  0  0  0  0
  1  2  1  0
  2  3  1  0
  3  4  1  0
  4  5  2  0
  5  6  1  0
  6  7  2  0
  7  8  1  0
  7  9  1  0
  9 10  2  0
  2 11  1  0
 11 12  2  0
 11 13  1  0
 13 14  1  0
 14 15  1  0
 15 16  1  0
 16 17  1  0
 17 18  1  0
 18 19  1  0
 19 20  1  0
 20 21  2  3
 21 22  2  0
 19 23  1  0
 23 24  2  3
 24 25  2  0
 14 26  1  0
 26 27  2  0
 26 28  1  0
 28 29  1  0
 29 30  1  0
 30 31  1  0
 31 32  2  0
 32 33  1  0
 33 34  2  0
 34 35  1  0
 35 36  2  0
 29 37  1  0
 37 38  2  0
 37 39  1  0
 39 40  1  0
 40 41  1  0
 41 42  2  0
 41 43  1  0
 43 44  1  0
 44 45  1  0
 45 46  1  0
 46 47  2  0
 47 48  1  0
 48 49  2  0
 49 50  1  0
 49 51  1  0
 51 52  2  0
 44 53  1  0
 53 54  2  0
 53 55  1  0
 55 56  1  0
 56 57  1  0
 57 58  1  0
 58 59  1  0
 59 60  1  0
 60 61  2  0
 60 62  1  0
 62 63  1  0
 63 64  1  0
 64 65  1  0
 63 66  1  0
 66 67  2  0
 66 68  1  0
 10  4  1  0
 36 31  1  0
 52 46  1  0
 59 55  1  0
M  END
>  <pIC50>  (567) 
9.42

>  <ChEMBL_ID>  (567) 
CHEMBL584995

>  <document_journal>  (567) 
J. Med. Chem.

>  <bao_endpoint>  (567) 
BAO_0000190

>  <potential_duplicate>  (567) 
False

>  <uo_units>  (567) 
UO_0000065

>  <canonical_smiles>  (567) 
N[C@@H](Cc1ccc(O)cc1)C(=O)N[C@H](CCCCN(N=C=S)N=C=S)C(=O)N[C@@H](Cc2ccccc2)C(=O)NCC(=O)N[C@@H](Cc3ccc(O)cc3)C(=O)N4CCC[C@H]4C(=O)N[C@@H](CO)C(=O)O

>  <parent_molecule_chembl_id>  (567) 
CHEMBL584995

>  <assay_type>  (567) 
B

>  <src_id>  (567) 
1

>  <ligand_efficiency>  (567) 
{u'le': u'0.19', u'bei': u'9.66', u'sei': u'2.47', u'lle': u'10.08'}

>  <standard_flag>  (567) 
True

>  <molecule_chembl_id>  (567) 
CHEMBL584995

>  <target_organism>  (567) 
Homo sapiens

>  <standard_units>  (567) 
nM

>  <record_id>  (567) 
852978

>  <document_chembl_id>  (567) 
CHEMBL1154775

>  <bao_format>  (567) 
BAO_0000219

>  <data_validity_description>  (567) 
None

>  <activity_id>  (567) 
2928930

>  <standard_type>  (567) 
IC50

>  <target_chembl_id>  (567) 
CHEMBL233

>  <data_validity_comment>  (567) 
None

>  <published_value>  (567) 
0.38

>  <document_year>  (567) 
2009

>  <target_pref_name>  (567) 
Mu opioid receptor

>  <assay_chembl_id>  (567) 
CHEMBL1058518

>  <standard_relation>  (567) 
=

>  <assay_description>  (567) 
Displacement of [3H]DAMGO from mu opioid receptor expressed in CHO cells after 90 mins by scintillation counting

>  <published_relation>  (567) 
=

>  <standard_value>  (567) 
0.38

>  <qudt_units>  (567) 
http://www.openphacts.org/units/Nanomolar

>  <target_tax_id>  (567) 
9606

>  <bao_label>  (567) 
cell-based format

>  <published_units>  (567) 
nM

>  <pchembl_value>  (567) 
9.42

>  <published_type>  (567) 
IC50

>  <activity_comment>  (567) 
None

$$$$

     RDKit          

 70 73  0  0  0  0  0  0  0  0999 V2000
    0.0000    0.0000    0.0000 N   0  0  0  0  0  0  0  0  0  0  0  0
    0.0000    0.0000    0.0000 C   0  0  0  0  0  0  0  0  0  0  0  0
    0.0000    0.0000    0.0000 C   0  0  0  0  0  0  0  0  0  0  0  0
    0.0000    0.0000    0.0000 C   0  0  0  0  0  0  0  0  0  0  0  0
    0.0000    0.0000    0.0000 C   0  0  0  0  0  0  0  0  0  0  0  0
    0.0000    0.0000    0.0000 C   0  0  0  0  0  0  0  0  0  0  0  0
    0.0000    0.0000    0.0000 C   0  0  0  0  0  0  0  0  0  0  0  0
    0.0000    0.0000    0.0000 O   0  0  0  0  0  0  0  0  0  0  0  0
    0.0000    0.0000    0.0000 C   0  0  0  0  0  0  0  0  0  0  0  0
    0.0000    0.0000    0.0000 C   0  0  0  0  0  0  0  0  0  0  0  0
    0.0000    0.0000    0.0000 C   0  0  0  0  0  0  0  0  0  0  0  0
    0.0000    0.0000    0.0000 O   0  0  0  0  0  0  0  0  0  0  0  0
    0.0000    0.0000    0.0000 N   0  0  0  0  0  0  0  0  0  0  0  0
    0.0000    0.0000    0.0000 C   0  0  0  0  0  0  0  0  0  0  0  0
    0.0000    0.0000    0.0000 C   0  0  0  0  0  0  0  0  0  0  0  0
    0.0000    0.0000    0.0000 C   0  0  0  0  0  0  0  0  0  0  0  0
    0.0000    0.0000    0.0000 C   0  0  0  0  0  0  0  0  0  0  0  0
    0.0000    0.0000    0.0000 C   0  0  0  0  0  0  0  0  0  0  0  0
    0.0000    0.0000    0.0000 N   0  0  0  0  0  0  0  0  0  0  0  0
    0.0000    0.0000    0.0000 C   0  0  0  0  0  0  0  0  0  0  0  0
    0.0000    0.0000    0.0000 O   0  0  0  0  0  0  0  0  0  0  0  0
    0.0000    0.0000    0.0000 C   0  0  0  0  0  0  0  0  0  0  0  0
    0.0000    0.0000    0.0000 Br  0  0  0  0  0  0  0  0  0  0  0  0
    0.0000    0.0000    0.0000 C   0  0  0  0  0  0  0  0  0  0  0  0
    0.0000    0.0000    0.0000 O   0  0  0  0  0  0  0  0  0  0  0  0
    0.0000    0.0000    0.0000 C   0  0  0  0  0  0  0  0  0  0  0  0
    0.0000    0.0000    0.0000 Br  0  0  0  0  0  0  0  0  0  0  0  0
    0.0000    0.0000    0.0000 C   0  0  0  0  0  0  0  0  0  0  0  0
    0.0000    0.0000    0.0000 O   0  0  0  0  0  0  0  0  0  0  0  0
    0.0000    0.0000    0.0000 N   0  0  0  0  0  0  0  0  0  0  0  0
    0.0000    0.0000    0.0000 C   0  0  0  0  0  0  0  0  0  0  0  0
    0.0000    0.0000    0.0000 C   0  0  0  0  0  0  0  0  0  0  0  0
    0.0000    0.0000    0.0000 C   0  0  0  0  0  0  0  0  0  0  0  0
    0.0000    0.0000    0.0000 C   0  0  0  0  0  0  0  0  0  0  0  0
    0.0000    0.0000    0.0000 C   0  0  0  0  0  0  0  0  0  0  0  0
    0.0000    0.0000    0.0000 C   0  0  0  0  0  0  0  0  0  0  0  0
    0.0000    0.0000    0.0000 C   0  0  0  0  0  0  0  0  0  0  0  0
    0.0000    0.0000    0.0000 C   0  0  0  0  0  0  0  0  0  0  0  0
    0.0000    0.0000    0.0000 C   0  0  0  0  0  0  0  0  0  0  0  0
    0.0000    0.0000    0.0000 O   0  0  0  0  0  0  0  0  0  0  0  0
    0.0000    0.0000    0.0000 N   0  0  0  0  0  0  0  0  0  0  0  0
    0.0000    0.0000    0.0000 C   0  0  0  0  0  0  0  0  0  0  0  0
    0.0000    0.0000    0.0000 C   0  0  0  0  0  0  0  0  0  0  0  0
    0.0000    0.0000    0.0000 O   0  0  0  0  0  0  0  0  0  0  0  0
    0.0000    0.0000    0.0000 N   0  0  0  0  0  0  0  0  0  0  0  0
    0.0000    0.0000    0.0000 C   0  0  0  0  0  0  0  0  0  0  0  0
    0.0000    0.0000    0.0000 C   0  0  0  0  0  0  0  0  0  0  0  0
    0.0000    0.0000    0.0000 C   0  0  0  0  0  0  0  0  0  0  0  0
    0.0000    0.0000    0.0000 C   0  0  0  0  0  0  0  0  0  0  0  0
    0.0000    0.0000    0.0000 C   0  0  0  0  0  0  0  0  0  0  0  0
    0.0000    0.0000    0.0000 C   0  0  0  0  0  0  0  0  0  0  0  0
    0.0000    0.0000    0.0000 O   0  0  0  0  0  0  0  0  0  0  0  0
    0.0000    0.0000    0.0000 C   0  0  0  0  0  0  0  0  0  0  0  0
    0.0000    0.0000    0.0000 C   0  0  0  0  0  0  0  0  0  0  0  0
    0.0000    0.0000    0.0000 C   0  0  0  0  0  0  0  0  0  0  0  0
    0.0000    0.0000    0.0000 O   0  0  0  0  0  0  0  0  0  0  0  0
    0.0000    0.0000    0.0000 N   0  0  0  0  0  0  0  0  0  0  0  0
    0.0000    0.0000    0.0000 C   0  0  0  0  0  0  0  0  0  0  0  0
    0.0000    0.0000    0.0000 C   0  0  0  0  0  0  0  0  0  0  0  0
    0.0000    0.0000    0.0000 C   0  0  0  0  0  0  0  0  0  0  0  0
    0.0000    0.0000    0.0000 C   0  0  0  0  0  0  0  0  0  0  0  0
    0.0000    0.0000    0.0000 C   0  0  0  0  0  0  0  0  0  0  0  0
    0.0000    0.0000    0.0000 O   0  0  0  0  0  0  0  0  0  0  0  0
    0.0000    0.0000    0.0000 N   0  0  0  0  0  0  0  0  0  0  0  0
    0.0000    0.0000    0.0000 C   0  0  0  0  0  0  0  0  0  0  0  0
    0.0000    0.0000    0.0000 C   0  0  0  0  0  0  0  0  0  0  0  0
    0.0000    0.0000    0.0000 O   0  0  0  0  0  0  0  0  0  0  0  0
    0.0000    0.0000    0.0000 C   0  0  0  0  0  0  0  0  0  0  0  0
    0.0000    0.0000    0.0000 O   0  0  0  0  0  0  0  0  0  0  0  0
    0.0000    0.0000    0.0000 O   0  0  0  0  0  0  0  0  0  0  0  0
  1  2  1  0
  2  3  1  0
  3  4  1  0
  4  5  2  0
  5  6  1  0
  6  7  2  0
  7  8  1  0
  7  9  1  0
  9 10  2  0
  2 11  1  0
 11 12  2  0
 11 13  1  0
 13 14  1  0
 14 15  1  0
 15 16  1  0
 16 17  1  0
 17 18  1  0
 18 19  1  0
 19 20  1  0
 20 21  2  0
 20 22  1  0
 22 23  1  0
 19 24  1  0
 24 25  2  0
 24 26  1  0
 26 27  1  0
 14 28  1  0
 28 29  2  0
 28 30  1  0
 30 31  1  0
 31 32  1  0
 32 33  1  0
 33 34  2  0
 34 35  1  0
 35 36  2  0
 36 37  1  0
 37 38  2  0
 31 39  1  0
 39 40  2  0
 39 41  1  0
 41 42  1  0
 42 43  1  0
 43 44  2  0
 43 45  1  0
 45 46  1  0
 46 47  1  0
 47 48  1  0
 48 49  2  0
 49 50  1  0
 50 51  2  0
 51 52  1  0
 51 53  1  0
 53 54  2  0
 46 55  1  0
 55 56  2  0
 55 57  1  0
 57 58  1  0
 58 59  1  0
 59 60  1  0
 60 61  1  0
 61 62  1  0
 62 63  2  0
 62 64  1  0
 64 65  1  0
 65 66  1  0
 66 67  1  0
 65 68  1  0
 68 69  2  0
 68 70  1  0
 10  4  1  0
 38 33  1  0
 54 48  1  0
 61 57  1  0
M  END
>  <pIC50>  (568) 
8.28

>  <ChEMBL_ID>  (568) 
CHEMBL575349

>  <document_journal>  (568) 
J. Med. Chem.

>  <bao_endpoint>  (568) 
BAO_0000190

>  <potential_duplicate>  (568) 
False

>  <uo_units>  (568) 
UO_0000065

>  <canonical_smiles>  (568) 
N[C@@H](Cc1ccc(O)cc1)C(=O)N[C@H](CCCCN(C(=O)CBr)C(=O)CBr)C(=O)N[C@@H](Cc2ccccc2)C(=O)NCC(=O)N[C@@H](Cc3ccc(O)cc3)C(=O)N4CCC[C@H]4C(=O)N[C@@H](CO)C(=O)O

>  <parent_molecule_chembl_id>  (568) 
CHEMBL575349

>  <assay_type>  (568) 
B

>  <src_id>  (568) 
1

>  <ligand_efficiency>  (568) 
{u'le': None, u'bei': u'7.51', u'sei': None, u'lle': None}

>  <standard_flag>  (568) 
True

>  <molecule_chembl_id>  (568) 
CHEMBL575349

>  <target_organism>  (568) 
Homo sapiens

>  <standard_units>  (568) 
nM

>  <record_id>  (568) 
852979

>  <document_chembl_id>  (568) 
CHEMBL1154775

>  <bao_format>  (568) 
BAO_0000219

>  <data_validity_description>  (568) 
None

>  <activity_id>  (568) 
2928934

>  <standard_type>  (568) 
IC50

>  <target_chembl_id>  (568) 
CHEMBL233

>  <data_validity_comment>  (568) 
None

>  <published_value>  (568) 
5.23

>  <document_year>  (568) 
2009

>  <target_pref_name>  (568) 
Mu opioid receptor

>  <assay_chembl_id>  (568) 
CHEMBL1058518

>  <standard_relation>  (568) 
=

>  <assay_description>  (568) 
Displacement of [3H]DAMGO from mu opioid receptor expressed in CHO cells after 90 mins by scintillation counting

>  <published_relation>  (568) 
=

>  <standard_value>  (568) 
5.23

>  <qudt_units>  (568) 
http://www.openphacts.org/units/Nanomolar

>  <target_tax_id>  (568) 
9606

>  <bao_label>  (568) 
cell-based format

>  <published_units>  (568) 
nM

>  <pchembl_value>  (568) 
8.28

>  <published_type>  (568) 
IC50

>  <activity_comment>  (568) 
None

$$$$

     RDKit          

 68 71  0  0  0  0  0  0  0  0999 V2000
    0.0000    0.0000    0.0000 C   0  0  0  0  0  0  0  0  0  0  0  0
    0.0000    0.0000    0.0000 C   0  0  0  0  0  0  0  0  0  0  0  0
    0.0000    0.0000    0.0000 O   0  0  0  0  0  0  0  0  0  0  0  0
    0.0000    0.0000    0.0000 N   0  0  0  0  0  0  0  0  0  0  0  0
    0.0000    0.0000    0.0000 C   0  0  0  0  0  0  0  0  0  0  0  0
    0.0000    0.0000    0.0000 C   0  0  0  0  0  0  0  0  0  0  0  0
    0.0000    0.0000    0.0000 C   0  0  0  0  0  0  0  0  0  0  0  0
    0.0000    0.0000    0.0000 C   0  0  0  0  0  0  0  0  0  0  0  0
    0.0000    0.0000    0.0000 C   0  0  0  0  0  0  0  0  0  0  0  0
    0.0000    0.0000    0.0000 N   0  0  0  0  0  0  0  0  0  0  0  0
    0.0000    0.0000    0.0000 C   0  0  0  0  0  0  0  0  0  0  0  0
    0.0000    0.0000    0.0000 O   0  0  0  0  0  0  0  0  0  0  0  0
    0.0000    0.0000    0.0000 C   0  0  0  0  0  0  0  0  0  0  0  0
    0.0000    0.0000    0.0000 N   0  0  0  0  0  0  0  0  0  0  0  0
    0.0000    0.0000    0.0000 C   0  0  0  0  0  0  0  0  0  0  0  0
    0.0000    0.0000    0.0000 C   0  0  0  0  0  0  0  0  0  0  0  0
    0.0000    0.0000    0.0000 C   0  0  0  0  0  0  0  0  0  0  0  0
    0.0000    0.0000    0.0000 C   0  0  0  0  0  0  0  0  0  0  0  0
    0.0000    0.0000    0.0000 C   0  0  0  0  0  0  0  0  0  0  0  0
    0.0000    0.0000    0.0000 O   0  0  0  0  0  0  0  0  0  0  0  0
    0.0000    0.0000    0.0000 C   0  0  0  0  0  0  0  0  0  0  0  0
    0.0000    0.0000    0.0000 C   0  0  0  0  0  0  0  0  0  0  0  0
    0.0000    0.0000    0.0000 C   0  0  0  0  0  0  0  0  0  0  0  0
    0.0000    0.0000    0.0000 O   0  0  0  0  0  0  0  0  0  0  0  0
    0.0000    0.0000    0.0000 N   0  0  0  0  0  0  0  0  0  0  0  0
    0.0000    0.0000    0.0000 C   0  0  0  0  0  0  0  0  0  0  0  0
    0.0000    0.0000    0.0000 C   0  0  0  0  0  0  0  0  0  0  0  0
    0.0000    0.0000    0.0000 C   0  0  0  0  0  0  0  0  0  0  0  0
    0.0000    0.0000    0.0000 C   0  0  0  0  0  0  0  0  0  0  0  0
    0.0000    0.0000    0.0000 C   0  0  0  0  0  0  0  0  0  0  0  0
    0.0000    0.0000    0.0000 C   0  0  0  0  0  0  0  0  0  0  0  0
    0.0000    0.0000    0.0000 C   0  0  0  0  0  0  0  0  0  0  0  0
    0.0000    0.0000    0.0000 C   0  0  0  0  0  0  0  0  0  0  0  0
    0.0000    0.0000    0.0000 C   0  0  0  0  0  0  0  0  0  0  0  0
    0.0000    0.0000    0.0000 O   0  0  0  0  0  0  0  0  0  0  0  0
    0.0000    0.0000    0.0000 N   0  0  0  0  0  0  0  0  0  0  0  0
    0.0000    0.0000    0.0000 C   0  0  0  0  0  0  0  0  0  0  0  0
    0.0000    0.0000    0.0000 C   0  0  0  0  0  0  0  0  0  0  0  0
    0.0000    0.0000    0.0000 O   0  0  0  0  0  0  0  0  0  0  0  0
    0.0000    0.0000    0.0000 N   0  0  0  0  0  0  0  0  0  0  0  0
    0.0000    0.0000    0.0000 C   0  0  0  0  0  0  0  0  0  0  0  0
    0.0000    0.0000    0.0000 C   0  0  0  0  0  0  0  0  0  0  0  0
    0.0000    0.0000    0.0000 C   0  0  0  0  0  0  0  0  0  0  0  0
    0.0000    0.0000    0.0000 C   0  0  0  0  0  0  0  0  0  0  0  0
    0.0000    0.0000    0.0000 C   0  0  0  0  0  0  0  0  0  0  0  0
    0.0000    0.0000    0.0000 C   0  0  0  0  0  0  0  0  0  0  0  0
    0.0000    0.0000    0.0000 O   0  0  0  0  0  0  0  0  0  0  0  0
    0.0000    0.0000    0.0000 C   0  0  0  0  0  0  0  0  0  0  0  0
    0.0000    0.0000    0.0000 C   0  0  0  0  0  0  0  0  0  0  0  0
    0.0000    0.0000    0.0000 C   0  0  0  0  0  0  0  0  0  0  0  0
    0.0000    0.0000    0.0000 O   0  0  0  0  0  0  0  0  0  0  0  0
    0.0000    0.0000    0.0000 N   0  0  0  0  0  0  0  0  0  0  0  0
    0.0000    0.0000    0.0000 C   0  0  0  0  0  0  0  0  0  0  0  0
    0.0000    0.0000    0.0000 C   0  0  0  0  0  0  0  0  0  0  0  0
    0.0000    0.0000    0.0000 C   0  0  0  0  0  0  0  0  0  0  0  0
    0.0000    0.0000    0.0000 C   0  0  0  0  0  0  0  0  0  0  0  0
    0.0000    0.0000    0.0000 C   0  0  0  0  0  0  0  0  0  0  0  0
    0.0000    0.0000    0.0000 O   0  0  0  0  0  0  0  0  0  0  0  0
    0.0000    0.0000    0.0000 N   0  0  0  0  0  0  0  0  0  0  0  0
    0.0000    0.0000    0.0000 C   0  0  0  0  0  0  0  0  0  0  0  0
    0.0000    0.0000    0.0000 C   0  0  0  0  0  0  0  0  0  0  0  0
    0.0000    0.0000    0.0000 O   0  0  0  0  0  0  0  0  0  0  0  0
    0.0000    0.0000    0.0000 C   0  0  0  0  0  0  0  0  0  0  0  0
    0.0000    0.0000    0.0000 O   0  0  0  0  0  0  0  0  0  0  0  0
    0.0000    0.0000    0.0000 O   0  0  0  0  0  0  0  0  0  0  0  0
    0.0000    0.0000    0.0000 C   0  0  0  0  0  0  0  0  0  0  0  0
    0.0000    0.0000    0.0000 O   0  0  0  0  0  0  0  0  0  0  0  0
    0.0000    0.0000    0.0000 C   0  0  0  0  0  0  0  0  0  0  0  0
  1  2  1  0
  2  3  2  0
  2  4  1  0
  4  5  1  0
  5  6  1  0
  6  7  1  0
  7  8  1  0
  8  9  1  0
  9 10  1  0
 10 11  1  0
 11 12  2  0
 11 13  1  0
 13 14  1  0
 13 15  1  0
 15 16  1  0
 16 17  2  0
 17 18  1  0
 18 19  2  0
 19 20  1  0
 19 21  1  0
 21 22  2  0
  9 23  1  0
 23 24  2  0
 23 25  1  0
 25 26  1  0
 26 27  1  0
 27 28  1  0
 28 29  2  0
 29 30  1  0
 30 31  2  0
 31 32  1  0
 32 33  2  0
 26 34  1  0
 34 35  2  0
 34 36  1  0
 36 37  1  0
 37 38  1  0
 38 39  2  0
 38 40  1  0
 40 41  1  0
 41 42  1  0
 42 43  1  0
 43 44  2  0
 44 45  1  0
 45 46  2  0
 46 47  1  0
 46 48  1  0
 48 49  2  0
 41 50  1  0
 50 51  2  0
 50 52  1  0
 52 53  1  0
 53 54  1  0
 54 55  1  0
 55 56  1  0
 56 57  1  0
 57 58  2  0
 57 59  1  0
 59 60  1  0
 60 61  1  0
 61 62  1  0
 60 63  1  0
 63 64  2  0
 63 65  1  0
  4 66  1  0
 66 67  2  0
 66 68  1  0
 22 16  1  0
 33 28  1  0
 49 43  1  0
 56 52  1  0
M  END
>  <pIC50>  (569) 
7.53

>  <ChEMBL_ID>  (569) 
CHEMBL574143

>  <document_journal>  (569) 
J. Med. Chem.

>  <bao_endpoint>  (569) 
BAO_0000190

>  <potential_duplicate>  (569) 
False

>  <uo_units>  (569) 
UO_0000065

>  <canonical_smiles>  (569) 
CC(=O)N(CCCC[C@@H](NC(=O)[C@@H](N)Cc1ccc(O)cc1)C(=O)N[C@@H](Cc2ccccc2)C(=O)NCC(=O)N[C@@H](Cc3ccc(O)cc3)C(=O)N4CCC[C@H]4C(=O)N[C@@H](CO)C(=O)O)C(=O)C

>  <parent_molecule_chembl_id>  (569) 
CHEMBL574143

>  <assay_type>  (569) 
B

>  <src_id>  (569) 
1

>  <ligand_efficiency>  (569) 
{u'le': u'0.15', u'bei': u'7.96', u'sei': u'2.3', u'lle': u'10.37'}

>  <standard_flag>  (569) 
True

>  <molecule_chembl_id>  (569) 
CHEMBL574143

>  <target_organism>  (569) 
Homo sapiens

>  <standard_units>  (569) 
nM

>  <record_id>  (569) 
852980

>  <document_chembl_id>  (569) 
CHEMBL1154775

>  <bao_format>  (569) 
BAO_0000219

>  <data_validity_description>  (569) 
None

>  <activity_id>  (569) 
2928938

>  <standard_type>  (569) 
IC50

>  <target_chembl_id>  (569) 
CHEMBL233

>  <data_validity_comment>  (569) 
None

>  <published_value>  (569) 
29.8

>  <document_year>  (569) 
2009

>  <target_pref_name>  (569) 
Mu opioid receptor

>  <assay_chembl_id>  (569) 
CHEMBL1058518

>  <standard_relation>  (569) 
=

>  <assay_description>  (569) 
Displacement of [3H]DAMGO from mu opioid receptor expressed in CHO cells after 90 mins by scintillation counting

>  <published_relation>  (569) 
=

>  <standard_value>  (569) 
29.8

>  <qudt_units>  (569) 
http://www.openphacts.org/units/Nanomolar

>  <target_tax_id>  (569) 
9606

>  <bao_label>  (569) 
cell-based format

>  <published_units>  (569) 
nM

>  <pchembl_value>  (569) 
7.53

>  <published_type>  (569) 
IC50

>  <activity_comment>  (569) 
None

$$$$

     RDKit          

 60 69  0  0  0  0  0  0  0  0999 V2000
    0.0000    0.0000    0.0000 C   0  0  0  0  0  0  0  0  0  0  0  0
    0.0000    0.0000    0.0000 C   0  0  0  0  0  0  0  0  0  0  0  0
    0.0000    0.0000    0.0000 C   0  0  0  0  0  0  0  0  0  0  0  0
    0.0000    0.0000    0.0000 C   0  0  0  0  0  0  0  0  0  0  0  0
    0.0000    0.0000    0.0000 C   0  0  0  0  0  0  0  0  0  0  0  0
    0.0000    0.0000    0.0000 C   0  0  0  0  0  0  0  0  0  0  0  0
    0.0000    0.0000    0.0000 C   0  0  0  0  0  0  0  0  0  0  0  0
    0.0000    0.0000    0.0000 C   0  0  0  0  0  0  0  0  0  0  0  0
    0.0000    0.0000    0.0000 C   0  0  0  0  0  0  0  0  0  0  0  0
    0.0000    0.0000    0.0000 C   0  0  0  0  0  0  0  0  0  0  0  0
    0.0000    0.0000    0.0000 C   0  0  0  0  0  0  0  0  0  0  0  0
    0.0000    0.0000    0.0000 O   0  0  0  0  0  0  0  0  0  0  0  0
    0.0000    0.0000    0.0000 O   0  0  0  0  0  0  0  0  0  0  0  0
    0.0000    0.0000    0.0000 C   0  0  0  0  0  0  0  0  0  0  0  0
    0.0000    0.0000    0.0000 C   0  0  0  0  0  0  0  0  0  0  0  0
    0.0000    0.0000    0.0000 C   0  0  0  0  0  0  0  0  0  0  0  0
    0.0000    0.0000    0.0000 C   0  0  0  0  0  0  0  0  0  0  0  0
    0.0000    0.0000    0.0000 C   0  0  0  0  0  0  0  0  0  0  0  0
    0.0000    0.0000    0.0000 C   0  0  0  0  0  0  0  0  0  0  0  0
    0.0000    0.0000    0.0000 C   0  0  0  0  0  0  0  0  0  0  0  0
    0.0000    0.0000    0.0000 C   0  0  0  0  0  0  0  0  0  0  0  0
    0.0000    0.0000    0.0000 C   0  0  0  0  0  0  0  0  0  0  0  0
    0.0000    0.0000    0.0000 C   0  0  0  0  0  0  0  0  0  0  0  0
    0.0000    0.0000    0.0000 C   0  0  0  0  0  0  0  0  0  0  0  0
    0.0000    0.0000    0.0000 C   0  0  0  0  0  0  0  0  0  0  0  0
    0.0000    0.0000    0.0000 C   0  0  0  0  0  0  0  0  0  0  0  0
    0.0000    0.0000    0.0000 C   0  0  0  0  0  0  0  0  0  0  0  0
    0.0000    0.0000    0.0000 N   0  0  0  0  0  0  0  0  0  0  0  0
    0.0000    0.0000    0.0000 C   0  0  0  0  0  0  0  0  0  0  0  0
    0.0000    0.0000    0.0000 C   0  0  0  0  0  0  0  0  0  0  0  0
    0.0000    0.0000    0.0000 C   0  0  0  0  0  0  0  0  0  0  0  0
    0.0000    0.0000    0.0000 C   0  0  0  0  0  0  0  0  0  0  0  0
    0.0000    0.0000    0.0000 C   0  0  0  0  0  0  0  0  0  0  0  0
    0.0000    0.0000    0.0000 C   0  0  0  0  0  0  0  0  0  0  0  0
    0.0000    0.0000    0.0000 C   0  0  0  0  0  0  0  0  0  0  0  0
    0.0000    0.0000    0.0000 C   0  0  0  0  0  0  0  0  0  0  0  0
    0.0000    0.0000    0.0000 O   0  0  0  0  0  0  0  0  0  0  0  0
    0.0000    0.0000    0.0000 O   0  0  0  0  0  0  0  0  0  0  0  0
    0.0000    0.0000    0.0000 C   0  0  0  0  0  0  0  0  0  0  0  0
    0.0000    0.0000    0.0000 C   0  0  0  0  0  0  0  0  0  0  0  0
    0.0000    0.0000    0.0000 C   0  0  0  0  0  0  0  0  0  0  0  0
    0.0000    0.0000    0.0000 C   0  0  0  0  0  0  0  0  0  0  0  0
    0.0000    0.0000    0.0000 C   0  0  0  0  0  0  0  0  0  0  0  0
    0.0000    0.0000    0.0000 C   0  0  0  0  0  0  0  0  0  0  0  0
    0.0000    0.0000    0.0000 C   0  0  0  0  0  0  0  0  0  0  0  0
    0.0000    0.0000    0.0000 C   0  0  0  0  0  0  0  0  0  0  0  0
    0.0000    0.0000    0.0000 C   0  0  0  0  0  0  0  0  0  0  0  0
    0.0000    0.0000    0.0000 C   0  0  0  0  0  0  0  0  0  0  0  0
    0.0000    0.0000    0.0000 C   0  0  0  0  0  0  0  0  0  0  0  0
    0.0000    0.0000    0.0000 C   0  0  0  0  0  0  0  0  0  0  0  0
    0.0000    0.0000    0.0000 C   0  0  0  0  0  0  0  0  0  0  0  0
    0.0000    0.0000    0.0000 C   0  0  0  0  0  0  0  0  0  0  0  0
    0.0000    0.0000    0.0000 N   0  0  0  0  0  0  0  0  0  0  0  0
    0.0000    0.0000    0.0000 C   0  0  0  0  0  0  0  0  0  0  0  0
    0.0000    0.0000    0.0000 C   0  0  0  0  0  0  0  0  0  0  0  0
    0.0000    0.0000    0.0000 C   0  0  0  0  0  0  0  0  0  0  0  0
    0.0000    0.0000    0.0000 C   0  0  0  0  0  0  0  0  0  0  0  0
    0.0000    0.0000    0.0000 C   0  0  0  0  0  0  0  0  0  0  0  0
    0.0000    0.0000    0.0000 C   0  0  0  0  0  0  0  0  0  0  0  0
    0.0000    0.0000    0.0000 C   0  0  0  0  0  0  0  0  0  0  0  0
  1  2  1  0
  2  3  1  0
  3  4  1  0
  4  5  1  0
  5  6  1  0
  6  7  1  0
  7  8  1  0
  8  9  1  0
  9 10  1  0
  9 11  1  0
 11 12  2  0
 11 13  1  0
 13 14  1  0
 14 15  2  0
 15 16  1  0
 16 17  2  0
 17 18  1  0
 18 19  1  0
 19 20  1  0
 20 21  1  0
 21 22  1  0
 22 23  1  0
 23 24  1  0
 24 25  1  0
 25 26  1  0
 26 27  1  0
 27 28  1  0
 28 29  1  0
 29 30  1  0
 30 31  1  0
 31 32  1  0
 32 33  1  0
 25 34  1  0
 34 35  2  0
  2 36  1  0
 36 37  2  0
 36 38  1  0
 38 39  1  0
 39 40  2  0
 40 41  1  0
 41 42  2  0
 42 43  1  0
 43 44  1  0
 44 45  1  0
 45 46  1  0
 46 47  1  0
 47 48  1  0
 48 49  1  0
 49 50  1  0
 50 51  1  0
 51 52  1  0
 52 53  1  0
 53 54  1  0
 54 55  1  0
 55 56  1  0
 56 57  1  0
 57 58  1  0
 50 59  1  0
 59 60  2  0
 35 14  1  0
 34 17  1  0
 28 19  1  0
 25 20  1  0
 33 30  1  0
 60 39  1  0
 59 42  1  0
 53 44  1  0
 50 45  1  0
 58 55  1  0
M  END
>  <pIC50>  (570) 
6.85

>  <ChEMBL_ID>  (570) 
CHEMBL582930

>  <document_journal>  (570) 
J. Med. Chem.

>  <bao_endpoint>  (570) 
BAO_0000190

>  <potential_duplicate>  (570) 
False

>  <uo_units>  (570) 
UO_0000065

>  <canonical_smiles>  (570) 
CC(CCCCCCC(C)C(=O)Oc1ccc2C[C@@H]3[C@@H]4CCCC[C@]4(CCN3CC5CCC5)c2c1)C(=O)Oc6ccc7C[C@@H]8[C@@H]9CCCC[C@]9(CCN8CC%10CCC%10)c7c6

>  <parent_molecule_chembl_id>  (570) 
CHEMBL582930

>  <assay_type>  (570) 
F

>  <src_id>  (570) 
1

>  <ligand_efficiency>  (570) 
None

>  <standard_flag>  (570) 
True

>  <molecule_chembl_id>  (570) 
CHEMBL582930

>  <target_organism>  (570) 
Homo sapiens

>  <standard_units>  (570) 
nM

>  <record_id>  (570) 
852889

>  <document_chembl_id>  (570) 
CHEMBL1154777

>  <bao_format>  (570) 
BAO_0000219

>  <data_validity_description>  (570) 
None

>  <activity_id>  (570) 
2929430

>  <standard_type>  (570) 
IC50

>  <target_chembl_id>  (570) 
CHEMBL233

>  <data_validity_comment>  (570) 
None

>  <published_value>  (570) 
140

>  <document_year>  (570) 
2009

>  <target_pref_name>  (570) 
Mu opioid receptor

>  <assay_chembl_id>  (570) 
CHEMBL1056147

>  <standard_relation>  (570) 
=

>  <assay_description>  (570) 
Antagonist activity at human mu opioid receptor expressed in CHO cells assessed as inhibition of DAMGO-stimulated [35S]GTPgammaS binding

>  <published_relation>  (570) 
=

>  <standard_value>  (570) 
140

>  <qudt_units>  (570) 
http://www.openphacts.org/units/Nanomolar

>  <target_tax_id>  (570) 
9606

>  <bao_label>  (570) 
cell-based format

>  <published_units>  (570) 
nM

>  <pchembl_value>  (570) 
6.85

>  <published_type>  (570) 
IC50

>  <activity_comment>  (570) 
None

$$$$

     RDKit          

 62 71  0  0  0  0  0  0  0  0999 V2000
    0.0000    0.0000    0.0000 C   0  0  0  0  0  0  0  0  0  0  0  0
    0.0000    0.0000    0.0000 C   0  0  0  0  0  0  0  0  0  0  0  0
    0.0000    0.0000    0.0000 C   0  0  0  0  0  0  0  0  0  0  0  0
    0.0000    0.0000    0.0000 C   0  0  0  0  0  0  0  0  0  0  0  0
    0.0000    0.0000    0.0000 C   0  0  0  0  0  0  0  0  0  0  0  0
    0.0000    0.0000    0.0000 C   0  0  0  0  0  0  0  0  0  0  0  0
    0.0000    0.0000    0.0000 C   0  0  0  0  0  0  0  0  0  0  0  0
    0.0000    0.0000    0.0000 C   0  0  0  0  0  0  0  0  0  0  0  0
    0.0000    0.0000    0.0000 C   0  0  0  0  0  0  0  0  0  0  0  0
    0.0000    0.0000    0.0000 C   0  0  0  0  0  0  0  0  0  0  0  0
    0.0000    0.0000    0.0000 C   0  0  0  0  0  0  0  0  0  0  0  0
    0.0000    0.0000    0.0000 C   0  0  0  0  0  0  0  0  0  0  0  0
    0.0000    0.0000    0.0000 C   0  0  0  0  0  0  0  0  0  0  0  0
    0.0000    0.0000    0.0000 O   0  0  0  0  0  0  0  0  0  0  0  0
    0.0000    0.0000    0.0000 O   0  0  0  0  0  0  0  0  0  0  0  0
    0.0000    0.0000    0.0000 C   0  0  0  0  0  0  0  0  0  0  0  0
    0.0000    0.0000    0.0000 C   0  0  0  0  0  0  0  0  0  0  0  0
    0.0000    0.0000    0.0000 C   0  0  0  0  0  0  0  0  0  0  0  0
    0.0000    0.0000    0.0000 C   0  0  0  0  0  0  0  0  0  0  0  0
    0.0000    0.0000    0.0000 C   0  0  0  0  0  0  0  0  0  0  0  0
    0.0000    0.0000    0.0000 C   0  0  0  0  0  0  0  0  0  0  0  0
    0.0000    0.0000    0.0000 C   0  0  0  0  0  0  0  0  0  0  0  0
    0.0000    0.0000    0.0000 C   0  0  0  0  0  0  0  0  0  0  0  0
    0.0000    0.0000    0.0000 C   0  0  0  0  0  0  0  0  0  0  0  0
    0.0000    0.0000    0.0000 C   0  0  0  0  0  0  0  0  0  0  0  0
    0.0000    0.0000    0.0000 C   0  0  0  0  0  0  0  0  0  0  0  0
    0.0000    0.0000    0.0000 C   0  0  0  0  0  0  0  0  0  0  0  0
    0.0000    0.0000    0.0000 C   0  0  0  0  0  0  0  0  0  0  0  0
    0.0000    0.0000    0.0000 C   0  0  0  0  0  0  0  0  0  0  0  0
    0.0000    0.0000    0.0000 N   0  0  0  0  0  0  0  0  0  0  0  0
    0.0000    0.0000    0.0000 C   0  0  0  0  0  0  0  0  0  0  0  0
    0.0000    0.0000    0.0000 C   0  0  0  0  0  0  0  0  0  0  0  0
    0.0000    0.0000    0.0000 C   0  0  0  0  0  0  0  0  0  0  0  0
    0.0000    0.0000    0.0000 C   0  0  0  0  0  0  0  0  0  0  0  0
    0.0000    0.0000    0.0000 C   0  0  0  0  0  0  0  0  0  0  0  0
    0.0000    0.0000    0.0000 C   0  0  0  0  0  0  0  0  0  0  0  0
    0.0000    0.0000    0.0000 C   0  0  0  0  0  0  0  0  0  0  0  0
    0.0000    0.0000    0.0000 C   0  0  0  0  0  0  0  0  0  0  0  0
    0.0000    0.0000    0.0000 O   0  0  0  0  0  0  0  0  0  0  0  0
    0.0000    0.0000    0.0000 O   0  0  0  0  0  0  0  0  0  0  0  0
    0.0000    0.0000    0.0000 C   0  0  0  0  0  0  0  0  0  0  0  0
    0.0000    0.0000    0.0000 C   0  0  0  0  0  0  0  0  0  0  0  0
    0.0000    0.0000    0.0000 C   0  0  0  0  0  0  0  0  0  0  0  0
    0.0000    0.0000    0.0000 C   0  0  0  0  0  0  0  0  0  0  0  0
    0.0000    0.0000    0.0000 C   0  0  0  0  0  0  0  0  0  0  0  0
    0.0000    0.0000    0.0000 C   0  0  0  0  0  0  0  0  0  0  0  0
    0.0000    0.0000    0.0000 C   0  0  0  0  0  0  0  0  0  0  0  0
    0.0000    0.0000    0.0000 C   0  0  0  0  0  0  0  0  0  0  0  0
    0.0000    0.0000    0.0000 C   0  0  0  0  0  0  0  0  0  0  0  0
    0.0000    0.0000    0.0000 C   0  0  0  0  0  0  0  0  0  0  0  0
    0.0000    0.0000    0.0000 C   0  0  0  0  0  0  0  0  0  0  0  0
    0.0000    0.0000    0.0000 C   0  0  0  0  0  0  0  0  0  0  0  0
    0.0000    0.0000    0.0000 C   0  0  0  0  0  0  0  0  0  0  0  0
    0.0000    0.0000    0.0000 C   0  0  0  0  0  0  0  0  0  0  0  0
    0.0000    0.0000    0.0000 N   0  0  0  0  0  0  0  0  0  0  0  0
    0.0000    0.0000    0.0000 C   0  0  0  0  0  0  0  0  0  0  0  0
    0.0000    0.0000    0.0000 C   0  0  0  0  0  0  0  0  0  0  0  0
    0.0000    0.0000    0.0000 C   0  0  0  0  0  0  0  0  0  0  0  0
    0.0000    0.0000    0.0000 C   0  0  0  0  0  0  0  0  0  0  0  0
    0.0000    0.0000    0.0000 C   0  0  0  0  0  0  0  0  0  0  0  0
    0.0000    0.0000    0.0000 C   0  0  0  0  0  0  0  0  0  0  0  0
    0.0000    0.0000    0.0000 C   0  0  0  0  0  0  0  0  0  0  0  0
  1  2  1  0
  2  3  1  0
  2  4  1  0
  4  5  1  0
  5  6  1  0
  6  7  1  0
  7  8  1  0
  8  9  1  0
  9 10  1  0
 10 11  1  0
 10 12  1  0
 10 13  1  0
 13 14  2  0
 13 15  1  0
 15 16  1  0
 16 17  2  0
 17 18  1  0
 18 19  2  0
 19 20  1  0
 20 21  1  0
 21 22  1  0
 22 23  1  0
 23 24  1  0
 24 25  1  0
 25 26  1  0
 26 27  1  0
 27 28  1  0
 28 29  1  0
 29 30  1  0
 30 31  1  0
 31 32  1  0
 32 33  1  0
 33 34  1  0
 34 35  1  0
 27 36  1  0
 36 37  2  0
  2 38  1  0
 38 39  2  0
 38 40  1  0
 40 41  1  0
 41 42  2  0
 42 43  1  0
 43 44  2  0
 44 45  1  0
 45 46  1  0
 46 47  1  0
 47 48  1  0
 48 49  1  0
 49 50  1  0
 50 51  1  0
 51 52  1  0
 52 53  1  0
 53 54  1  0
 54 55  1  0
 55 56  1  0
 56 57  1  0
 57 58  1  0
 58 59  1  0
 59 60  1  0
 52 61  1  0
 61 62  2  0
 37 16  1  0
 36 19  1  0
 30 21  1  0
 27 22  1  0
 35 32  1  0
 62 41  1  0
 61 44  1  0
 55 46  1  0
 52 47  1  0
 60 57  1  0
M  END
>  <pIC50>  (571) 
7.09

>  <ChEMBL_ID>  (571) 
CHEMBL584790

>  <document_journal>  (571) 
J. Med. Chem.

>  <bao_endpoint>  (571) 
BAO_0000190

>  <potential_duplicate>  (571) 
False

>  <uo_units>  (571) 
UO_0000065

>  <canonical_smiles>  (571) 
CC(C)(CCCCCCC(C)(C)C(=O)Oc1ccc2C[C@@H]3[C@@H]4CCCC[C@]4(CCN3CC5CCC5)c2c1)C(=O)Oc6ccc7C[C@@H]8[C@@H]9CCCC[C@]9(CCN8CC%10CCC%10)c7c6

>  <parent_molecule_chembl_id>  (571) 
CHEMBL584790

>  <assay_type>  (571) 
F

>  <src_id>  (571) 
1

>  <ligand_efficiency>  (571) 
None

>  <standard_flag>  (571) 
True

>  <molecule_chembl_id>  (571) 
CHEMBL584790

>  <target_organism>  (571) 
Homo sapiens

>  <standard_units>  (571) 
nM

>  <record_id>  (571) 
852890

>  <document_chembl_id>  (571) 
CHEMBL1154777

>  <bao_format>  (571) 
BAO_0000219

>  <data_validity_description>  (571) 
None

>  <activity_id>  (571) 
2929431

>  <standard_type>  (571) 
IC50

>  <target_chembl_id>  (571) 
CHEMBL233

>  <data_validity_comment>  (571) 
None

>  <published_value>  (571) 
81

>  <document_year>  (571) 
2009

>  <target_pref_name>  (571) 
Mu opioid receptor

>  <assay_chembl_id>  (571) 
CHEMBL1056147

>  <standard_relation>  (571) 
=

>  <assay_description>  (571) 
Antagonist activity at human mu opioid receptor expressed in CHO cells assessed as inhibition of DAMGO-stimulated [35S]GTPgammaS binding

>  <published_relation>  (571) 
=

>  <standard_value>  (571) 
81

>  <qudt_units>  (571) 
http://www.openphacts.org/units/Nanomolar

>  <target_tax_id>  (571) 
9606

>  <bao_label>  (571) 
cell-based format

>  <published_units>  (571) 
nM

>  <pchembl_value>  (571) 
7.09

>  <published_type>  (571) 
IC50

>  <activity_comment>  (571) 
None

$$$$

     RDKit          

 57 66  0  0  0  0  0  0  0  0999 V2000
    0.0000    0.0000    0.0000 C   0  0  0  0  0  0  0  0  0  0  0  0
    0.0000    0.0000    0.0000 C   0  0  0  0  0  0  0  0  0  0  0  0
    0.0000    0.0000    0.0000 C   0  0  0  0  0  0  0  0  0  0  0  0
    0.0000    0.0000    0.0000 N   0  0  0  0  0  0  0  0  0  0  0  0
    0.0000    0.0000    0.0000 C   0  0  0  0  0  0  0  0  0  0  0  0
    0.0000    0.0000    0.0000 C   0  0  0  0  0  0  0  0  0  0  0  0
    0.0000    0.0000    0.0000 C   0  0  0  0  0  0  0  0  0  0  0  0
    0.0000    0.0000    0.0000 C   0  0  0  0  0  0  0  0  0  0  0  0
    0.0000    0.0000    0.0000 C   0  0  0  0  0  0  0  0  0  0  0  0
    0.0000    0.0000    0.0000 C   0  0  0  0  0  0  0  0  0  0  0  0
    0.0000    0.0000    0.0000 C   0  0  0  0  0  0  0  0  0  0  0  0
    0.0000    0.0000    0.0000 C   0  0  0  0  0  0  0  0  0  0  0  0
    0.0000    0.0000    0.0000 C   0  0  0  0  0  0  0  0  0  0  0  0
    0.0000    0.0000    0.0000 C   0  0  0  0  0  0  0  0  0  0  0  0
    0.0000    0.0000    0.0000 C   0  0  0  0  0  0  0  0  0  0  0  0
    0.0000    0.0000    0.0000 C   0  0  0  0  0  0  0  0  0  0  0  0
    0.0000    0.0000    0.0000 C   0  0  0  0  0  0  0  0  0  0  0  0
    0.0000    0.0000    0.0000 C   0  0  0  0  0  0  0  0  0  0  0  0
    0.0000    0.0000    0.0000 O   0  0  0  0  0  0  0  0  0  0  0  0
    0.0000    0.0000    0.0000 C   0  0  0  0  0  0  0  0  0  0  0  0
    0.0000    0.0000    0.0000 O   0  0  0  0  0  0  0  0  0  0  0  0
    0.0000    0.0000    0.0000 C   0  0  0  0  0  0  0  0  0  0  0  0
    0.0000    0.0000    0.0000 C   0  0  0  0  0  0  0  0  0  0  0  0
    0.0000    0.0000    0.0000 C   0  0  0  0  0  0  0  0  0  0  0  0
    0.0000    0.0000    0.0000 C   0  0  0  0  0  0  0  0  0  0  0  0
    0.0000    0.0000    0.0000 C   0  0  0  0  0  0  0  0  0  0  0  0
    0.0000    0.0000    0.0000 C   0  0  0  0  0  0  0  0  0  0  0  0
    0.0000    0.0000    0.0000 C   0  0  0  0  0  0  0  0  0  0  0  0
    0.0000    0.0000    0.0000 C   0  0  0  0  0  0  0  0  0  0  0  0
    0.0000    0.0000    0.0000 C   0  0  0  0  0  0  0  0  0  0  0  0
    0.0000    0.0000    0.0000 O   0  0  0  0  0  0  0  0  0  0  0  0
    0.0000    0.0000    0.0000 O   0  0  0  0  0  0  0  0  0  0  0  0
    0.0000    0.0000    0.0000 C   0  0  0  0  0  0  0  0  0  0  0  0
    0.0000    0.0000    0.0000 C   0  0  0  0  0  0  0  0  0  0  0  0
    0.0000    0.0000    0.0000 C   0  0  0  0  0  0  0  0  0  0  0  0
    0.0000    0.0000    0.0000 C   0  0  0  0  0  0  0  0  0  0  0  0
    0.0000    0.0000    0.0000 C   0  0  0  0  0  0  0  0  0  0  0  0
    0.0000    0.0000    0.0000 C   0  0  0  0  0  0  0  0  0  0  0  0
    0.0000    0.0000    0.0000 C   0  0  0  0  0  0  0  0  0  0  0  0
    0.0000    0.0000    0.0000 C   0  0  0  0  0  0  0  0  0  0  0  0
    0.0000    0.0000    0.0000 C   0  0  0  0  0  0  0  0  0  0  0  0
    0.0000    0.0000    0.0000 C   0  0  0  0  0  0  0  0  0  0  0  0
    0.0000    0.0000    0.0000 C   0  0  0  0  0  0  0  0  0  0  0  0
    0.0000    0.0000    0.0000 C   0  0  0  0  0  0  0  0  0  0  0  0
    0.0000    0.0000    0.0000 C   0  0  0  0  0  0  0  0  0  0  0  0
    0.0000    0.0000    0.0000 C   0  0  0  0  0  0  0  0  0  0  0  0
    0.0000    0.0000    0.0000 N   0  0  0  0  0  0  0  0  0  0  0  0
    0.0000    0.0000    0.0000 C   0  0  0  0  0  0  0  0  0  0  0  0
    0.0000    0.0000    0.0000 C   0  0  0  0  0  0  0  0  0  0  0  0
    0.0000    0.0000    0.0000 C   0  0  0  0  0  0  0  0  0  0  0  0
    0.0000    0.0000    0.0000 C   0  0  0  0  0  0  0  0  0  0  0  0
    0.0000    0.0000    0.0000 C   0  0  0  0  0  0  0  0  0  0  0  0
    0.0000    0.0000    0.0000 C   0  0  0  0  0  0  0  0  0  0  0  0
    0.0000    0.0000    0.0000 C   0  0  0  0  0  0  0  0  0  0  0  0
    0.0000    0.0000    0.0000 C   0  0  0  0  0  0  0  0  0  0  0  0
    0.0000    0.0000    0.0000 O   0  0  0  0  0  0  0  0  0  0  0  0
    0.0000    0.0000    0.0000 C   0  0  0  0  0  0  0  0  0  0  0  0
  1  2  2  0
  2  3  1  0
  3  4  1  0
  4  5  1  0
  5  6  1  0
  6  7  1  0
  7  8  1  0
  8  9  1  0
  9 10  1  0
 10 11  1  0
 11 12  1  0
 12 13  1  0
 13 14  1  0
 14 15  1  0
 15 16  2  0
 16 17  1  0
 17 18  2  0
 18 19  1  0
 19 20  1  0
 20 21  2  0
 20 22  1  0
 22 23  1  0
 23 24  1  0
 24 25  1  0
 25 26  1  0
 26 27  1  0
 27 28  1  0
 28 29  1  0
 29 30  1  0
 30 31  2  0
 30 32  1  0
 32 33  1  0
 33 34  2  0
 34 35  1  0
 35 36  2  0
 36 37  1  0
 37 38  1  0
 38 39  1  0
 39 40  1  0
 40 41  1  0
 41 42  1  0
 42 43  1  0
 43 44  1  0
 44 45  1  0
 45 46  1  0
 46 47  1  0
 47 48  1  0
 48 49  1  0
 49 50  1  0
 50 51  1  0
 51 52  1  0
 44 53  1  0
 53 54  2  0
 18 55  1  0
 55 56  1  0
 55 57  2  0
 13  4  1  0
 12  7  1  0
 57  7  1  0
 56  8  1  0
 57 15  1  0
 54 33  1  0
 53 36  1  0
 47 38  1  0
 44 39  1  0
 52 49  1  0
M  END
>  <pIC50>  (572) 
7.6

>  <ChEMBL_ID>  (572) 
CHEMBL584791

>  <document_journal>  (572) 
J. Med. Chem.

>  <bao_endpoint>  (572) 
BAO_0000190

>  <potential_duplicate>  (572) 
False

>  <uo_units>  (572) 
UO_0000065

>  <canonical_smiles>  (572) 
C=CCN1CC[C@]23[C@@H]4CCC[C@H]2[C@H]1Cc5ccc(OC(=O)CCCCCCCCC(=O)Oc6ccc7CC8[C@@H]9CCCC[C@]9(CCN8CC%10CCC%10)c7c6)c(O4)c35

>  <parent_molecule_chembl_id>  (572) 
CHEMBL584791

>  <assay_type>  (572) 
F

>  <src_id>  (572) 
1

>  <ligand_efficiency>  (572) 
None

>  <standard_flag>  (572) 
True

>  <molecule_chembl_id>  (572) 
CHEMBL584791

>  <target_organism>  (572) 
Homo sapiens

>  <standard_units>  (572) 
nM

>  <record_id>  (572) 
852892

>  <document_chembl_id>  (572) 
CHEMBL1154777

>  <bao_format>  (572) 
BAO_0000219

>  <data_validity_description>  (572) 
None

>  <activity_id>  (572) 
2929432

>  <standard_type>  (572) 
IC50

>  <target_chembl_id>  (572) 
CHEMBL233

>  <data_validity_comment>  (572) 
None

>  <published_value>  (572) 
25

>  <document_year>  (572) 
2009

>  <target_pref_name>  (572) 
Mu opioid receptor

>  <assay_chembl_id>  (572) 
CHEMBL1056147

>  <standard_relation>  (572) 
=

>  <assay_description>  (572) 
Antagonist activity at human mu opioid receptor expressed in CHO cells assessed as inhibition of DAMGO-stimulated [35S]GTPgammaS binding

>  <published_relation>  (572) 
=

>  <standard_value>  (572) 
25

>  <qudt_units>  (572) 
http://www.openphacts.org/units/Nanomolar

>  <target_tax_id>  (572) 
9606

>  <bao_label>  (572) 
cell-based format

>  <published_units>  (572) 
nM

>  <pchembl_value>  (572) 
7.6

>  <published_type>  (572) 
IC50

>  <activity_comment>  (572) 
None

$$$$

     RDKit          

 32 34  0  0  0  0  0  0  0  0999 V2000
    0.0000    0.0000    0.0000 C   0  0  0  0  0  0  0  0  0  0  0  0
    0.0000    0.0000    0.0000 O   0  0  0  0  0  0  0  0  0  0  0  0
    0.0000    0.0000    0.0000 C   0  0  0  0  0  0  0  0  0  0  0  0
    0.0000    0.0000    0.0000 C   0  0  0  0  0  0  0  0  0  0  0  0
    0.0000    0.0000    0.0000 C   0  0  0  0  0  0  0  0  0  0  0  0
    0.0000    0.0000    0.0000 N   0  0  0  0  0  0  0  0  0  0  0  0
    0.0000    0.0000    0.0000 C   0  0  0  0  0  0  0  0  0  0  0  0
    0.0000    0.0000    0.0000 Cl  0  0  0  0  0  0  0  0  0  0  0  0
    0.0000    0.0000    0.0000 C   0  0  0  0  0  0  0  0  0  0  0  0
    0.0000    0.0000    0.0000 C   0  0  0  0  0  0  0  0  0  0  0  0
    0.0000    0.0000    0.0000 C   0  0  0  0  0  0  0  0  0  0  0  0
    0.0000    0.0000    0.0000 O   0  0  0  0  0  0  0  0  0  0  0  0
    0.0000    0.0000    0.0000 N   0  0  0  0  0  0  0  0  0  0  0  0
    0.0000    0.0000    0.0000 C   0  0  0  0  0  0  0  0  0  0  0  0
    0.0000    0.0000    0.0000 C   0  0  0  0  0  0  0  0  0  0  0  0
    0.0000    0.0000    0.0000 N   0  0  0  0  0  0  0  0  0  0  0  0
    0.0000    0.0000    0.0000 C   0  0  0  0  0  0  0  0  0  0  0  0
    0.0000    0.0000    0.0000 C   0  0  0  0  0  0  0  0  0  0  0  0
    0.0000    0.0000    0.0000 C   0  0  0  0  0  0  0  0  0  0  0  0
    0.0000    0.0000    0.0000 C   0  0  0  0  0  0  0  0  0  0  0  0
    0.0000    0.0000    0.0000 C   0  0  0  0  0  0  0  0  0  0  0  0
    0.0000    0.0000    0.0000 C   0  0  0  0  0  0  0  0  0  0  0  0
    0.0000    0.0000    0.0000 C   0  0  0  0  0  0  0  0  0  0  0  0
    0.0000    0.0000    0.0000 C   0  0  0  0  0  0  0  0  0  0  0  0
    0.0000    0.0000    0.0000 O   0  0  0  0  0  0  0  0  0  0  0  0
    0.0000    0.0000    0.0000 C   0  0  0  0  0  0  0  0  0  0  0  0
    0.0000    0.0000    0.0000 C   0  0  0  0  0  0  0  0  0  0  0  0
    0.0000    0.0000    0.0000 C   0  0  0  0  0  0  0  0  0  0  0  0
    0.0000    0.0000    0.0000 C   0  0  0  0  0  0  0  0  0  0  0  0
    0.0000    0.0000    0.0000 C   0  0  0  0  0  0  0  0  0  0  0  0
    0.0000    0.0000    0.0000 O   0  0  0  0  0  0  0  0  0  0  0  0
    0.0000    0.0000    0.0000 C   0  0  0  0  0  0  0  0  0  0  0  0
  1  2  1  0
  2  3  1  0
  3  4  2  0
  4  5  1  0
  5  6  1  0
  5  7  2  0
  7  8  1  0
  7  9  1  0
  9 10  2  0
 10 11  1  0
 11 12  2  0
 11 13  1  0
 13 14  1  0
 14 15  1  0
 15 16  1  0
 16 17  1  0
 16 18  1  0
 18 19  1  0
 19 20  1  0
 20 21  1  0
 21 22  1  0
 22 23  1  0
 23 24  1  0
 24 25  1  0
 24 26  1  0
 26 27  2  0
 27 28  1  0
 28 29  2  0
 29 30  1  0
 30 31  1  0
 30 32  2  0
 10  3  1  0
 24 19  1  0
 32 26  1  0
M  END
>  <pIC50>  (573) 
6.72

>  <ChEMBL_ID>  (573) 
CHEMBL1163015

>  <document_journal>  (573) 
Bioorg. Med. Chem. Lett.

>  <bao_endpoint>  (573) 
BAO_0000190

>  <potential_duplicate>  (573) 
False

>  <uo_units>  (573) 
UO_0000065

>  <canonical_smiles>  (573) 
COc1cc(N)c(Cl)cc1C(=O)NCCN(C)CC2CCCCC2(O)c3cccc(O)c3

>  <parent_molecule_chembl_id>  (573) 
CHEMBL1163015

>  <assay_type>  (573) 
B

>  <src_id>  (573) 
1

>  <ligand_efficiency>  (573) 
{u'le': u'0.29', u'bei': u'14.55', u'sei': u'6.22', u'lle': u'3.49'}

>  <standard_flag>  (573) 
True

>  <molecule_chembl_id>  (573) 
CHEMBL1163015

>  <target_organism>  (573) 
Homo sapiens

>  <standard_units>  (573) 
nM

>  <record_id>  (573) 
857733

>  <document_chembl_id>  (573) 
CHEMBL1156007

>  <bao_format>  (573) 
BAO_0000357

>  <data_validity_description>  (573) 
None

>  <activity_id>  (573) 
3021828

>  <standard_type>  (573) 
IC50

>  <target_chembl_id>  (573) 
CHEMBL233

>  <data_validity_comment>  (573) 
None

>  <published_value>  (573) 
0.19

>  <document_year>  (573) 
2009

>  <target_pref_name>  (573) 
Mu opioid receptor

>  <assay_chembl_id>  (573) 
CHEMBL1048159

>  <standard_relation>  (573) 
=

>  <assay_description>  (573) 
Binding affinity to human mu opioid receptor

>  <published_relation>  (573) 
=

>  <standard_value>  (573) 
190

>  <qudt_units>  (573) 
http://www.openphacts.org/units/Nanomolar

>  <target_tax_id>  (573) 
9606

>  <bao_label>  (573) 
single protein format

>  <published_units>  (573) 
uM

>  <pchembl_value>  (573) 
6.72

>  <published_type>  (573) 
IC50

>  <activity_comment>  (573) 
None

$$$$

     RDKit          

 33 35  0  0  0  0  0  0  0  0999 V2000
    0.0000    0.0000    0.0000 C   0  0  0  0  0  0  0  0  0  0  0  0
    0.0000    0.0000    0.0000 O   0  0  0  0  0  0  0  0  0  0  0  0
    0.0000    0.0000    0.0000 C   0  0  0  0  0  0  0  0  0  0  0  0
    0.0000    0.0000    0.0000 C   0  0  0  0  0  0  0  0  0  0  0  0
    0.0000    0.0000    0.0000 C   0  0  0  0  0  0  0  0  0  0  0  0
    0.0000    0.0000    0.0000 C   0  0  0  0  0  0  0  0  0  0  0  0
    0.0000    0.0000    0.0000 C   0  0  0  0  0  0  0  0  0  0  0  0
    0.0000    0.0000    0.0000 C   0  0  0  0  0  0  0  0  0  0  0  0
    0.0000    0.0000    0.0000 C   0  0  0  0  0  0  0  0  0  0  0  0
    0.0000    0.0000    0.0000 O   0  0  0  0  0  0  0  0  0  0  0  0
    0.0000    0.0000    0.0000 C   0  0  0  0  0  0  0  0  0  0  0  0
    0.0000    0.0000    0.0000 C   0  0  0  0  0  0  0  0  0  0  0  0
    0.0000    0.0000    0.0000 C   0  0  0  0  0  0  0  0  0  0  0  0
    0.0000    0.0000    0.0000 C   0  0  0  0  0  0  0  0  0  0  0  0
    0.0000    0.0000    0.0000 C   0  0  0  0  0  0  0  0  0  0  0  0
    0.0000    0.0000    0.0000 C   0  0  0  0  0  0  0  0  0  0  0  0
    0.0000    0.0000    0.0000 N   0  0  0  0  0  0  0  0  0  0  0  0
    0.0000    0.0000    0.0000 C   0  0  0  0  0  0  0  0  0  0  0  0
    0.0000    0.0000    0.0000 C   0  0  0  0  0  0  0  0  0  0  0  0
    0.0000    0.0000    0.0000 C   0  0  0  0  0  0  0  0  0  0  0  0
    0.0000    0.0000    0.0000 N   0  0  0  0  0  0  0  0  0  0  0  0
    0.0000    0.0000    0.0000 C   0  0  0  0  0  0  0  0  0  0  0  0
    0.0000    0.0000    0.0000 O   0  0  0  0  0  0  0  0  0  0  0  0
    0.0000    0.0000    0.0000 C   0  0  0  0  0  0  0  0  0  0  0  0
    0.0000    0.0000    0.0000 C   0  0  0  0  0  0  0  0  0  0  0  0
    0.0000    0.0000    0.0000 C   0  0  0  0  0  0  0  0  0  0  0  0
    0.0000    0.0000    0.0000 Cl  0  0  0  0  0  0  0  0  0  0  0  0
    0.0000    0.0000    0.0000 C   0  0  0  0  0  0  0  0  0  0  0  0
    0.0000    0.0000    0.0000 N   0  0  0  0  0  0  0  0  0  0  0  0
    0.0000    0.0000    0.0000 C   0  0  0  0  0  0  0  0  0  0  0  0
    0.0000    0.0000    0.0000 C   0  0  0  0  0  0  0  0  0  0  0  0
    0.0000    0.0000    0.0000 O   0  0  0  0  0  0  0  0  0  0  0  0
    0.0000    0.0000    0.0000 C   0  0  0  0  0  0  0  0  0  0  0  0
  1  2  1  0
  2  3  1  0
  3  4  2  0
  4  5  1  0
  5  6  2  0
  6  7  1  0
  7  8  2  0
  7  9  1  0
  9 10  1  0
  9 11  1  0
 11 12  1  0
 12 13  1  0
 13 14  1  0
 14 15  1  0
 15 16  1  0
 16 17  1  0
 17 18  1  0
 17 19  1  0
 19 20  1  0
 20 21  1  0
 21 22  1  0
 22 23  2  0
 22 24  1  0
 24 25  2  0
 25 26  1  0
 26 27  1  0
 26 28  2  0
 28 29  1  0
 28 30  1  0
 30 31  2  0
 31 32  1  0
 32 33  1  0
  8  3  1  0
 15  9  1  0
 31 24  1  0
M  END
>  <pIC50>  (574) 
5.35

>  <ChEMBL_ID>  (574) 
CHEMBL572038

>  <document_journal>  (574) 
Bioorg. Med. Chem. Lett.

>  <bao_endpoint>  (574) 
BAO_0000190

>  <potential_duplicate>  (574) 
False

>  <uo_units>  (574) 
UO_0000065

>  <canonical_smiles>  (574) 
COc1cccc(c1)[C@@]2(O)CCCC[C@@H]2CN(C)CCNC(=O)c3cc(Cl)c(N)cc3OC

>  <parent_molecule_chembl_id>  (574) 
CHEMBL572038

>  <assay_type>  (574) 
B

>  <src_id>  (574) 
1

>  <ligand_efficiency>  (574) 
{u'le': u'0.22', u'bei': u'11.23', u'sei': u'5.51', u'lle': u'1.89'}

>  <standard_flag>  (574) 
True

>  <molecule_chembl_id>  (574) 
CHEMBL572038

>  <target_organism>  (574) 
Homo sapiens

>  <standard_units>  (574) 
nM

>  <record_id>  (574) 
857734

>  <document_chembl_id>  (574) 
CHEMBL1156007

>  <bao_format>  (574) 
BAO_0000357

>  <data_validity_description>  (574) 
None

>  <activity_id>  (574) 
3021829

>  <standard_type>  (574) 
IC50

>  <target_chembl_id>  (574) 
CHEMBL233

>  <data_validity_comment>  (574) 
None

>  <published_value>  (574) 
4.5

>  <document_year>  (574) 
2009

>  <target_pref_name>  (574) 
Mu opioid receptor

>  <assay_chembl_id>  (574) 
CHEMBL1048159

>  <standard_relation>  (574) 
=

>  <assay_description>  (574) 
Binding affinity to human mu opioid receptor

>  <published_relation>  (574) 
=

>  <standard_value>  (574) 
4500

>  <qudt_units>  (574) 
http://www.openphacts.org/units/Nanomolar

>  <target_tax_id>  (574) 
9606

>  <bao_label>  (574) 
single protein format

>  <published_units>  (574) 
uM

>  <pchembl_value>  (574) 
5.35

>  <published_type>  (574) 
IC50

>  <activity_comment>  (574) 
None

$$$$

     RDKit          

 32 34  0  0  0  0  0  0  0  0999 V2000
    0.0000    0.0000    0.0000 C   0  0  0  0  0  0  0  0  0  0  0  0
    0.0000    0.0000    0.0000 O   0  0  0  0  0  0  0  0  0  0  0  0
    0.0000    0.0000    0.0000 C   0  0  0  0  0  0  0  0  0  0  0  0
    0.0000    0.0000    0.0000 C   0  0  0  0  0  0  0  0  0  0  0  0
    0.0000    0.0000    0.0000 C   0  0  0  0  0  0  0  0  0  0  0  0
    0.0000    0.0000    0.0000 N   0  0  0  0  0  0  0  0  0  0  0  0
    0.0000    0.0000    0.0000 C   0  0  0  0  0  0  0  0  0  0  0  0
    0.0000    0.0000    0.0000 Cl  0  0  0  0  0  0  0  0  0  0  0  0
    0.0000    0.0000    0.0000 C   0  0  0  0  0  0  0  0  0  0  0  0
    0.0000    0.0000    0.0000 C   0  0  0  0  0  0  0  0  0  0  0  0
    0.0000    0.0000    0.0000 C   0  0  0  0  0  0  0  0  0  0  0  0
    0.0000    0.0000    0.0000 O   0  0  0  0  0  0  0  0  0  0  0  0
    0.0000    0.0000    0.0000 N   0  0  0  0  0  0  0  0  0  0  0  0
    0.0000    0.0000    0.0000 C   0  0  0  0  0  0  0  0  0  0  0  0
    0.0000    0.0000    0.0000 C   0  0  0  0  0  0  0  0  0  0  0  0
    0.0000    0.0000    0.0000 N   0  0  0  0  0  0  0  0  0  0  0  0
    0.0000    0.0000    0.0000 C   0  0  0  0  0  0  0  0  0  0  0  0
    0.0000    0.0000    0.0000 C   0  0  0  0  0  0  0  0  0  0  0  0
    0.0000    0.0000    0.0000 C   0  0  0  0  0  0  0  0  0  0  0  0
    0.0000    0.0000    0.0000 C   0  0  0  0  0  0  0  0  0  0  0  0
    0.0000    0.0000    0.0000 C   0  0  0  0  0  0  0  0  0  0  0  0
    0.0000    0.0000    0.0000 C   0  0  0  0  0  0  0  0  0  0  0  0
    0.0000    0.0000    0.0000 C   0  0  0  0  0  0  0  0  0  0  0  0
    0.0000    0.0000    0.0000 C   0  0  0  0  0  0  0  0  0  0  0  0
    0.0000    0.0000    0.0000 O   0  0  0  0  0  0  0  0  0  0  0  0
    0.0000    0.0000    0.0000 C   0  0  0  0  0  0  0  0  0  0  0  0
    0.0000    0.0000    0.0000 C   0  0  0  0  0  0  0  0  0  0  0  0
    0.0000    0.0000    0.0000 C   0  0  0  0  0  0  0  0  0  0  0  0
    0.0000    0.0000    0.0000 C   0  0  0  0  0  0  0  0  0  0  0  0
    0.0000    0.0000    0.0000 C   0  0  0  0  0  0  0  0  0  0  0  0
    0.0000    0.0000    0.0000 O   0  0  0  0  0  0  0  0  0  0  0  0
    0.0000    0.0000    0.0000 C   0  0  0  0  0  0  0  0  0  0  0  0
  1  2  1  0
  2  3  1  0
  3  4  2  0
  4  5  1  0
  5  6  1  0
  5  7  2  0
  7  8  1  0
  7  9  1  0
  9 10  2  0
 10 11  1  0
 11 12  2  0
 11 13  1  0
 13 14  1  0
 14 15  1  0
 15 16  1  0
 16 17  1  0
 16 18  1  0
 18 19  1  0
 19 20  1  0
 20 21  1  0
 21 22  1  0
 22 23  1  0
 23 24  1  0
 24 25  1  0
 24 26  1  0
 26 27  2  0
 27 28  1  0
 28 29  2  0
 29 30  1  0
 30 31  1  0
 30 32  2  0
 10  3  1  0
 24 19  1  0
 32 26  1  0
M  END
>  <pIC50>  (575) 
6.47

>  <ChEMBL_ID>  (575) 
CHEMBL569357

>  <document_journal>  (575) 
Bioorg. Med. Chem. Lett.

>  <bao_endpoint>  (575) 
BAO_0000190

>  <potential_duplicate>  (575) 
False

>  <uo_units>  (575) 
UO_0000065

>  <canonical_smiles>  (575) 
COc1cc(N)c(Cl)cc1C(=O)NCCN(C)C[C@H]2CCCC[C@]2(O)c3cccc(O)c3

>  <parent_molecule_chembl_id>  (575) 
CHEMBL569357

>  <assay_type>  (575) 
B

>  <src_id>  (575) 
1

>  <ligand_efficiency>  (575) 
{u'le': u'0.28', u'bei': u'14', u'sei': u'5.99', u'lle': u'3.24'}

>  <standard_flag>  (575) 
True

>  <molecule_chembl_id>  (575) 
CHEMBL569357

>  <target_organism>  (575) 
Homo sapiens

>  <standard_units>  (575) 
nM

>  <record_id>  (575) 
857805

>  <document_chembl_id>  (575) 
CHEMBL1156007

>  <bao_format>  (575) 
BAO_0000357

>  <data_validity_description>  (575) 
None

>  <activity_id>  (575) 
3021831

>  <standard_type>  (575) 
IC50

>  <target_chembl_id>  (575) 
CHEMBL233

>  <data_validity_comment>  (575) 
None

>  <published_value>  (575) 
0.34

>  <document_year>  (575) 
2009

>  <target_pref_name>  (575) 
Mu opioid receptor

>  <assay_chembl_id>  (575) 
CHEMBL1048159

>  <standard_relation>  (575) 
=

>  <assay_description>  (575) 
Binding affinity to human mu opioid receptor

>  <published_relation>  (575) 
=

>  <standard_value>  (575) 
340

>  <qudt_units>  (575) 
http://www.openphacts.org/units/Nanomolar

>  <target_tax_id>  (575) 
9606

>  <bao_label>  (575) 
single protein format

>  <published_units>  (575) 
uM

>  <pchembl_value>  (575) 
6.47

>  <published_type>  (575) 
IC50

>  <activity_comment>  (575) 
None

$$$$

     RDKit          

 32 34  0  0  0  0  0  0  0  0999 V2000
    0.0000    0.0000    0.0000 C   0  0  0  0  0  0  0  0  0  0  0  0
    0.0000    0.0000    0.0000 O   0  0  0  0  0  0  0  0  0  0  0  0
    0.0000    0.0000    0.0000 C   0  0  0  0  0  0  0  0  0  0  0  0
    0.0000    0.0000    0.0000 C   0  0  0  0  0  0  0  0  0  0  0  0
    0.0000    0.0000    0.0000 C   0  0  0  0  0  0  0  0  0  0  0  0
    0.0000    0.0000    0.0000 N   0  0  0  0  0  0  0  0  0  0  0  0
    0.0000    0.0000    0.0000 C   0  0  0  0  0  0  0  0  0  0  0  0
    0.0000    0.0000    0.0000 Cl  0  0  0  0  0  0  0  0  0  0  0  0
    0.0000    0.0000    0.0000 C   0  0  0  0  0  0  0  0  0  0  0  0
    0.0000    0.0000    0.0000 C   0  0  0  0  0  0  0  0  0  0  0  0
    0.0000    0.0000    0.0000 C   0  0  0  0  0  0  0  0  0  0  0  0
    0.0000    0.0000    0.0000 O   0  0  0  0  0  0  0  0  0  0  0  0
    0.0000    0.0000    0.0000 N   0  0  0  0  0  0  0  0  0  0  0  0
    0.0000    0.0000    0.0000 C   0  0  0  0  0  0  0  0  0  0  0  0
    0.0000    0.0000    0.0000 C   0  0  0  0  0  0  0  0  0  0  0  0
    0.0000    0.0000    0.0000 N   0  0  0  0  0  0  0  0  0  0  0  0
    0.0000    0.0000    0.0000 C   0  0  0  0  0  0  0  0  0  0  0  0
    0.0000    0.0000    0.0000 C   0  0  0  0  0  0  0  0  0  0  0  0
    0.0000    0.0000    0.0000 C   0  0  0  0  0  0  0  0  0  0  0  0
    0.0000    0.0000    0.0000 C   0  0  0  0  0  0  0  0  0  0  0  0
    0.0000    0.0000    0.0000 C   0  0  0  0  0  0  0  0  0  0  0  0
    0.0000    0.0000    0.0000 C   0  0  0  0  0  0  0  0  0  0  0  0
    0.0000    0.0000    0.0000 C   0  0  0  0  0  0  0  0  0  0  0  0
    0.0000    0.0000    0.0000 C   0  0  0  0  0  0  0  0  0  0  0  0
    0.0000    0.0000    0.0000 O   0  0  0  0  0  0  0  0  0  0  0  0
    0.0000    0.0000    0.0000 C   0  0  0  0  0  0  0  0  0  0  0  0
    0.0000    0.0000    0.0000 C   0  0  0  0  0  0  0  0  0  0  0  0
    0.0000    0.0000    0.0000 C   0  0  0  0  0  0  0  0  0  0  0  0
    0.0000    0.0000    0.0000 C   0  0  0  0  0  0  0  0  0  0  0  0
    0.0000    0.0000    0.0000 C   0  0  0  0  0  0  0  0  0  0  0  0
    0.0000    0.0000    0.0000 O   0  0  0  0  0  0  0  0  0  0  0  0
    0.0000    0.0000    0.0000 C   0  0  0  0  0  0  0  0  0  0  0  0
  1  2  1  0
  2  3  1  0
  3  4  2  0
  4  5  1  0
  5  6  1  0
  5  7  2  0
  7  8  1  0
  7  9  1  0
  9 10  2  0
 10 11  1  0
 11 12  2  0
 11 13  1  0
 13 14  1  0
 14 15  1  0
 15 16  1  0
 16 17  1  0
 16 18  1  0
 18 19  1  0
 19 20  1  0
 20 21  1  0
 21 22  1  0
 22 23  1  0
 23 24  1  0
 24 25  1  0
 24 26  1  0
 26 27  2  0
 27 28  1  0
 28 29  2  0
 29 30  1  0
 30 31  1  0
 30 32  2  0
 10  3  1  0
 24 19  1  0
 32 26  1  0
M  END
>  <pIC50>  (576) 
5.29

>  <ChEMBL_ID>  (576) 
CHEMBL572248

>  <document_journal>  (576) 
Bioorg. Med. Chem. Lett.

>  <bao_endpoint>  (576) 
BAO_0000190

>  <potential_duplicate>  (576) 
False

>  <uo_units>  (576) 
UO_0000065

>  <canonical_smiles>  (576) 
COc1cc(N)c(Cl)cc1C(=O)NCCN(C)C[C@@H]2CCCC[C@@]2(O)c3cccc(O)c3

>  <parent_molecule_chembl_id>  (576) 
CHEMBL572248

>  <assay_type>  (576) 
B

>  <src_id>  (576) 
1

>  <ligand_efficiency>  (576) 
{u'le': u'0.23', u'bei': u'11.46', u'sei': u'4.9', u'lle': u'2.06'}

>  <standard_flag>  (576) 
True

>  <molecule_chembl_id>  (576) 
CHEMBL572248

>  <target_organism>  (576) 
Homo sapiens

>  <standard_units>  (576) 
nM

>  <record_id>  (576) 
857813

>  <document_chembl_id>  (576) 
CHEMBL1156007

>  <bao_format>  (576) 
BAO_0000357

>  <data_validity_description>  (576) 
None

>  <activity_id>  (576) 
3021832

>  <standard_type>  (576) 
IC50

>  <target_chembl_id>  (576) 
CHEMBL233

>  <data_validity_comment>  (576) 
None

>  <published_value>  (576) 
5.1

>  <document_year>  (576) 
2009

>  <target_pref_name>  (576) 
Mu opioid receptor

>  <assay_chembl_id>  (576) 
CHEMBL1048159

>  <standard_relation>  (576) 
=

>  <assay_description>  (576) 
Binding affinity to human mu opioid receptor

>  <published_relation>  (576) 
=

>  <standard_value>  (576) 
5100

>  <qudt_units>  (576) 
http://www.openphacts.org/units/Nanomolar

>  <target_tax_id>  (576) 
9606

>  <bao_label>  (576) 
single protein format

>  <published_units>  (576) 
uM

>  <pchembl_value>  (576) 
5.29

>  <published_type>  (576) 
IC50

>  <activity_comment>  (576) 
None

$$$$

     RDKit          

 36 39  0  0  0  0  0  0  0  0999 V2000
    0.0000    0.0000    0.0000 C   0  0  0  0  0  0  0  0  0  0  0  0
    0.0000    0.0000    0.0000 O   0  0  0  0  0  0  0  0  0  0  0  0
    0.0000    0.0000    0.0000 C   0  0  0  0  0  0  0  0  0  0  0  0
    0.0000    0.0000    0.0000 C   0  0  0  0  0  0  0  0  0  0  0  0
    0.0000    0.0000    0.0000 N   0  0  0  0  0  0  0  0  0  0  0  0
    0.0000    0.0000    0.0000 C   0  0  0  0  0  0  0  0  0  0  0  0
    0.0000    0.0000    0.0000 C   0  0  0  0  0  0  0  0  0  0  0  0
    0.0000    0.0000    0.0000 C   0  0  0  0  0  0  0  0  0  0  0  0
    0.0000    0.0000    0.0000 C   0  0  0  0  0  0  0  0  0  0  0  0
    0.0000    0.0000    0.0000 C   0  0  0  0  0  0  0  0  0  0  0  0
    0.0000    0.0000    0.0000 C   0  0  0  0  0  0  0  0  0  0  0  0
    0.0000    0.0000    0.0000 C   0  0  0  0  0  0  0  0  0  0  0  0
    0.0000    0.0000    0.0000 O   0  0  0  0  0  0  0  0  0  0  0  0
    0.0000    0.0000    0.0000 C   0  0  0  0  0  0  0  0  0  0  0  0
    0.0000    0.0000    0.0000 C   0  0  0  0  0  0  0  0  0  0  0  0
    0.0000    0.0000    0.0000 C   0  0  0  0  0  0  0  0  0  0  0  0
    0.0000    0.0000    0.0000 C   0  0  0  0  0  0  0  0  0  0  0  0
    0.0000    0.0000    0.0000 C   0  0  0  0  0  0  0  0  0  0  0  0
    0.0000    0.0000    0.0000 O   0  0  0  0  0  0  0  0  0  0  0  0
    0.0000    0.0000    0.0000 C   0  0  0  0  0  0  0  0  0  0  0  0
    0.0000    0.0000    0.0000 C   0  0  0  0  0  0  0  0  0  0  0  0
    0.0000    0.0000    0.0000 C   0  0  0  0  0  0  0  0  0  0  0  0
    0.0000    0.0000    0.0000 C   0  0  0  0  0  0  0  0  0  0  0  0
    0.0000    0.0000    0.0000 N   0  0  0  0  0  0  0  0  0  0  0  0
    0.0000    0.0000    0.0000 C   0  0  0  0  0  0  0  0  0  0  0  0
    0.0000    0.0000    0.0000 O   0  0  0  0  0  0  0  0  0  0  0  0
    0.0000    0.0000    0.0000 C   0  0  0  0  0  0  0  0  0  0  0  0
    0.0000    0.0000    0.0000 C   0  0  0  0  0  0  0  0  0  0  0  0
    0.0000    0.0000    0.0000 C   0  0  0  0  0  0  0  0  0  0  0  0
    0.0000    0.0000    0.0000 Cl  0  0  0  0  0  0  0  0  0  0  0  0
    0.0000    0.0000    0.0000 C   0  0  0  0  0  0  0  0  0  0  0  0
    0.0000    0.0000    0.0000 N   0  0  0  0  0  0  0  0  0  0  0  0
    0.0000    0.0000    0.0000 C   0  0  0  0  0  0  0  0  0  0  0  0
    0.0000    0.0000    0.0000 C   0  0  0  0  0  0  0  0  0  0  0  0
    0.0000    0.0000    0.0000 O   0  0  0  0  0  0  0  0  0  0  0  0
    0.0000    0.0000    0.0000 C   0  0  0  0  0  0  0  0  0  0  0  0
  1  2  1  0
  2  3  1  0
  3  4  1  0
  4  5  1  0
  5  6  1  0
  6  7  1  0
  7  8  1  0
  8  9  1  0
  9 10  1  0
 10 11  1  0
 11 12  1  0
 12 13  1  0
 12 14  1  0
 14 15  2  0
 15 16  1  0
 16 17  2  0
 17 18  1  0
 18 19  1  0
 18 20  2  0
  5 21  1  0
 21 22  1  0
 22 23  1  0
 23 24  1  0
 24 25  1  0
 25 26  2  0
 25 27  1  0
 27 28  2  0
 28 29  1  0
 29 30  1  0
 29 31  2  0
 31 32  1  0
 31 33  1  0
 33 34  2  0
 34 35  1  0
 35 36  1  0
 23  3  1  0
 12  7  1  0
 20 14  1  0
 34 27  1  0
M  END
>  <pIC50>  (577) 
6.39

>  <ChEMBL_ID>  (577) 
CHEMBL585567

>  <document_journal>  (577) 
Bioorg. Med. Chem. Lett.

>  <bao_endpoint>  (577) 
BAO_0000190

>  <potential_duplicate>  (577) 
False

>  <uo_units>  (577) 
UO_0000065

>  <canonical_smiles>  (577) 
CO[C@@H]1CN(C[C@@H]2CCCC[C@@]2(O)c3cccc(O)c3)CC[C@@H]1NC(=O)c4cc(Cl)c(N)cc4OC

>  <parent_molecule_chembl_id>  (577) 
CHEMBL585567

>  <assay_type>  (577) 
B

>  <src_id>  (577) 
1

>  <ligand_efficiency>  (577) 
{u'le': u'0.24', u'bei': u'12.33', u'sei': u'5.45', u'lle': u'3.35'}

>  <standard_flag>  (577) 
True

>  <molecule_chembl_id>  (577) 
CHEMBL585567

>  <target_organism>  (577) 
Homo sapiens

>  <standard_units>  (577) 
nM

>  <record_id>  (577) 
857874

>  <document_chembl_id>  (577) 
CHEMBL1156007

>  <bao_format>  (577) 
BAO_0000357

>  <data_validity_description>  (577) 
None

>  <activity_id>  (577) 
3022923

>  <standard_type>  (577) 
IC50

>  <target_chembl_id>  (577) 
CHEMBL233

>  <data_validity_comment>  (577) 
None

>  <published_value>  (577) 
0.41

>  <document_year>  (577) 
2009

>  <target_pref_name>  (577) 
Mu opioid receptor

>  <assay_chembl_id>  (577) 
CHEMBL1048159

>  <standard_relation>  (577) 
=

>  <assay_description>  (577) 
Binding affinity to human mu opioid receptor

>  <published_relation>  (577) 
=

>  <standard_value>  (577) 
410

>  <qudt_units>  (577) 
http://www.openphacts.org/units/Nanomolar

>  <target_tax_id>  (577) 
9606

>  <bao_label>  (577) 
single protein format

>  <published_units>  (577) 
uM

>  <pchembl_value>  (577) 
6.39

>  <published_type>  (577) 
IC50

>  <activity_comment>  (577) 
None

$$$$

     RDKit          

 49 61  0  0  0  0  0  0  0  0999 V2000
    0.0000    0.0000    0.0000 O   0  0  0  0  0  0  0  0  0  0  0  0
    0.0000    0.0000    0.0000 C   0  0  0  0  0  0  0  0  0  0  0  0
    0.0000    0.0000    0.0000 C   0  0  0  0  0  0  0  0  0  0  0  0
    0.0000    0.0000    0.0000 C   0  0  0  0  0  0  0  0  0  0  0  0
    0.0000    0.0000    0.0000 C   0  0  0  0  0  0  0  0  0  0  0  0
    0.0000    0.0000    0.0000 C   0  0  0  0  0  0  0  0  0  0  0  0
    0.0000    0.0000    0.0000 C   0  0  0  0  0  0  0  0  0  0  0  0
    0.0000    0.0000    0.0000 N   0  0  0  0  0  0  0  0  0  0  0  0
    0.0000    0.0000    0.0000 C   0  0  0  0  0  0  0  0  0  0  0  0
    0.0000    0.0000    0.0000 C   0  0  0  0  0  0  0  0  0  0  0  0
    0.0000    0.0000    0.0000 C   0  0  0  0  0  0  0  0  0  0  0  0
    0.0000    0.0000    0.0000 C   0  0  0  0  0  0  0  0  0  0  0  0
    0.0000    0.0000    0.0000 C   0  0  0  0  0  0  0  0  0  0  0  0
    0.0000    0.0000    0.0000 C   0  0  0  0  0  0  0  0  0  0  0  0
    0.0000    0.0000    0.0000 C   0  0  0  0  0  0  0  0  0  0  0  0
    0.0000    0.0000    0.0000 C   0  0  0  0  0  0  0  0  0  0  0  0
    0.0000    0.0000    0.0000 O   0  0  0  0  0  0  0  0  0  0  0  0
    0.0000    0.0000    0.0000 C   0  0  0  0  0  0  0  0  0  0  0  0
    0.0000    0.0000    0.0000 C   0  0  0  0  0  0  0  0  0  0  0  0
    0.0000    0.0000    0.0000 C   0  0  0  0  0  0  0  0  0  0  0  0
    0.0000    0.0000    0.0000 N   0  0  0  0  0  0  0  0  0  0  0  0
    0.0000    0.0000    0.0000 C   0  0  0  0  0  0  0  0  0  0  0  0
    0.0000    0.0000    0.0000 C   0  0  0  0  0  0  0  0  0  0  0  0
    0.0000    0.0000    0.0000 O   0  0  0  0  0  0  0  0  0  0  0  0
    0.0000    0.0000    0.0000 C   0  0  0  0  0  0  0  0  0  0  0  0
    0.0000    0.0000    0.0000 C   0  0  0  0  0  0  0  0  0  0  0  0
    0.0000    0.0000    0.0000 O   0  0  0  0  0  0  0  0  0  0  0  0
    0.0000    0.0000    0.0000 C   0  0  0  0  0  0  0  0  0  0  0  0
    0.0000    0.0000    0.0000 C   0  0  0  0  0  0  0  0  0  0  0  0
    0.0000    0.0000    0.0000 C   0  0  0  0  0  0  0  0  0  0  0  0
    0.0000    0.0000    0.0000 C   0  0  0  0  0  0  0  0  0  0  0  0
    0.0000    0.0000    0.0000 C   0  0  0  0  0  0  0  0  0  0  0  0
    0.0000    0.0000    0.0000 N   0  0  0  0  0  0  0  0  0  0  0  0
    0.0000    0.0000    0.0000 C   0  0  0  0  0  0  0  0  0  0  0  0
    0.0000    0.0000    0.0000 C   0  0  0  0  0  0  0  0  0  0  0  0
    0.0000    0.0000    0.0000 C   0  0  0  0  0  0  0  0  0  0  0  0
    0.0000    0.0000    0.0000 C   0  0  0  0  0  0  0  0  0  0  0  0
    0.0000    0.0000    0.0000 C   0  0  0  0  0  0  0  0  0  0  0  0
    0.0000    0.0000    0.0000 C   0  0  0  0  0  0  0  0  0  0  0  0
    0.0000    0.0000    0.0000 C   0  0  0  0  0  0  0  0  0  0  0  0
    0.0000    0.0000    0.0000 C   0  0  0  0  0  0  0  0  0  0  0  0
    0.0000    0.0000    0.0000 C   0  0  0  0  0  0  0  0  0  0  0  0
    0.0000    0.0000    0.0000 O   0  0  0  0  0  0  0  0  0  0  0  0
    0.0000    0.0000    0.0000 C   0  0  0  0  0  0  0  0  0  0  0  0
    0.0000    0.0000    0.0000 C   0  0  0  0  0  0  0  0  0  0  0  0
    0.0000    0.0000    0.0000 C   0  0  0  0  0  0  0  0  0  0  0  0
    0.0000    0.0000    0.0000 C   0  0  0  0  0  0  0  0  0  0  0  0
    0.0000    0.0000    0.0000 C   0  0  0  0  0  0  0  0  0  0  0  0
    0.0000    0.0000    0.0000 O   0  0  0  0  0  0  0  0  0  0  0  0
  1  2  1  0
  2  3  2  0
  3  4  1  0
  4  5  2  0
  5  6  1  0
  6  7  1  0
  7  8  1  0
  8  9  1  0
  9 10  1  0
 10 11  1  0
 11 12  1  0
  8 13  1  0
 13 14  1  0
 14 15  1  0
 15 16  1  0
 16 17  1  0
 17 18  1  0
 18 19  2  0
 16 20  1  0
 20 21  1  0
 21 22  1  0
 22 23  1  0
 23 24  1  0
 24 25  1  0
 25 26  1  0
 26 27  1  0
 26 28  2  0
 28 29  1  0
 29 30  2  0
 30 31  1  0
 31 32  1  0
 32 33  1  0
 33 34  1  0
 34 35  1  0
 35 36  1  0
 36 37  1  0
 33 38  1  0
 38 39  1  0
 39 40  1  0
 40 41  1  0
 40 42  1  0
 42 43  1  0
 42 44  1  0
 44 45  1  0
 45 46  1  0
 46 47  1  0
 47 48  1  0
 48 49  1  0
 18  2  1  0
 19  5  1  0
 48  7  1  0
 12 10  1  0
 19 15  1  0
 48 15  1  0
 46 20  2  0
 45 22  2  0
 40 23  1  0
 41 25  2  0
 41 30  1  0
 42 32  1  0
 37 35  1  0
M  END
>  <pIC50>  (578) 
6.67

>  <ChEMBL_ID>  (578) 
CHEMBL573214

>  <document_journal>  (578) 
Bioorg. Med. Chem. Lett.

>  <bao_endpoint>  (578) 
BAO_0000190

>  <potential_duplicate>  (578) 
False

>  <uo_units>  (578) 
UO_0000065

>  <canonical_smiles>  (578) 
Oc1ccc2C[C@H]3N(CC4CC4)CC[C@@]56[C@@H](Oc1c25)c7[nH]c8[C@@H]9Oc%10c(O)ccc%11C[C@H]%12N(CC%13CC%13)CC[C@@]9(c%10%11)[C@@]%12(O)Cc8c7C[C@@]36O

>  <parent_molecule_chembl_id>  (578) 
CHEMBL573214

>  <assay_type>  (578) 
F

>  <src_id>  (578) 
1

>  <ligand_efficiency>  (578) 
None

>  <standard_flag>  (578) 
True

>  <molecule_chembl_id>  (578) 
CHEMBL573214

>  <target_organism>  (578) 
Homo sapiens

>  <standard_units>  (578) 
nM

>  <record_id>  (578) 
937523

>  <document_chembl_id>  (578) 
CHEMBL1221377

>  <bao_format>  (578) 
BAO_0000219

>  <data_validity_description>  (578) 
None

>  <activity_id>  (578) 
3412280

>  <standard_type>  (578) 
IC50

>  <target_chembl_id>  (578) 
CHEMBL233

>  <data_validity_comment>  (578) 
None

>  <published_value>  (578) 
212

>  <document_year>  (578) 
2010

>  <target_pref_name>  (578) 
Mu opioid receptor

>  <assay_chembl_id>  (578) 
CHEMBL1225862

>  <standard_relation>  (578) 
=

>  <assay_description>  (578) 
Antagonist activity at human mu opioid receptor expressed in HEK cells assessed as inhibition of DAMGO-induced [35S]GTPgammaS binding

>  <published_relation>  (578) 
=

>  <standard_value>  (578) 
212

>  <qudt_units>  (578) 
http://www.openphacts.org/units/Nanomolar

>  <target_tax_id>  (578) 
9606

>  <bao_label>  (578) 
cell-based format

>  <published_units>  (578) 
nM

>  <pchembl_value>  (578) 
6.67

>  <published_type>  (578) 
IC50

>  <activity_comment>  (578) 
None

$$$$

     RDKit          

 25 28  0  0  0  0  0  0  0  0999 V2000
    0.0000    0.0000    0.0000 C   0  0  0  0  0  0  0  0  0  0  0  0
    0.0000    0.0000    0.0000 C   0  0  0  0  0  0  0  0  0  0  0  0
    0.0000    0.0000    0.0000 C   0  0  0  0  0  0  0  0  0  0  0  0
    0.0000    0.0000    0.0000 C   0  0  0  0  0  0  0  0  0  0  0  0
    0.0000    0.0000    0.0000 C   0  0  0  0  0  0  0  0  0  0  0  0
    0.0000    0.0000    0.0000 C   0  0  0  0  0  0  0  0  0  0  0  0
    0.0000    0.0000    0.0000 N   0  0  0  0  0  0  0  0  0  0  0  0
    0.0000    0.0000    0.0000 C   0  0  0  0  0  0  0  0  0  0  0  0
    0.0000    0.0000    0.0000 C   0  0  0  0  0  0  0  0  0  0  0  0
    0.0000    0.0000    0.0000 C   0  0  0  0  0  0  0  0  0  0  0  0
    0.0000    0.0000    0.0000 C   0  0  0  0  0  0  0  0  0  0  0  0
    0.0000    0.0000    0.0000 C   0  0  0  0  0  0  0  0  0  0  0  0
    0.0000    0.0000    0.0000 C   0  0  0  0  0  0  0  0  0  0  0  0
    0.0000    0.0000    0.0000 C   0  0  0  0  0  0  0  0  0  0  0  0
    0.0000    0.0000    0.0000 O   0  0  0  0  0  0  0  0  0  0  0  0
    0.0000    0.0000    0.0000 C   0  0  0  0  0  0  0  0  0  0  0  0
    0.0000    0.0000    0.0000 C   0  0  0  0  0  0  0  0  0  0  0  0
    0.0000    0.0000    0.0000 C   0  0  0  0  0  0  0  0  0  0  0  0
    0.0000    0.0000    0.0000 C   0  0  0  0  0  0  0  0  0  0  0  0
    0.0000    0.0000    0.0000 C   0  0  0  0  0  0  0  0  0  0  0  0
    0.0000    0.0000    0.0000 C   0  0  0  0  0  0  0  0  0  0  0  0
    0.0000    0.0000    0.0000 C   0  0  0  0  0  0  0  0  0  0  0  0
    0.0000    0.0000    0.0000 O   0  0  0  0  0  0  0  0  0  0  0  0
    0.0000    0.0000    0.0000 N   0  0  0  0  0  0  0  0  0  0  0  0
    0.0000    0.0000    0.0000 S   0  0  0  0  0  0  0  0  0  0  0  0
  1  2  1  0
  2  3  2  0
  3  4  1  0
  4  5  2  0
  5  6  1  0
  6  7  1  0
  7  8  1  0
  8  9  1  0
  9 10  1  0
 10 11  1  0
 11 12  1  0
 12 13  1  0
 13 14  1  0
 13 15  1  0
 15 16  1  0
 16 17  2  0
 17 18  1  0
 18 19  2  0
 19 20  1  0
 20 21  2  0
 20 22  1  0
 22 23  2  0
 22 24  1  0
  5 25  1  0
 25  2  1  0
 11  7  1  0
 14  8  1  0
 21 16  1  0
M  END
>  <pIC50>  (579) 
6.14

>  <ChEMBL_ID>  (579) 
CHEMBL1223815

>  <document_journal>  (579) 
Bioorg. Med. Chem. Lett.

>  <bao_endpoint>  (579) 
BAO_0000190

>  <potential_duplicate>  (579) 
False

>  <uo_units>  (579) 
UO_0000065

>  <canonical_smiles>  (579) 
Cc1ccc(CN2[C@@H]3CC[C@H]2C[C@H](C3)Oc4cccc(c4)C(=O)N)s1

>  <parent_molecule_chembl_id>  (579) 
CHEMBL1223815

>  <assay_type>  (579) 
F

>  <src_id>  (579) 
1

>  <ligand_efficiency>  (579) 
None

>  <standard_flag>  (579) 
True

>  <molecule_chembl_id>  (579) 
CHEMBL1223815

>  <target_organism>  (579) 
Homo sapiens

>  <standard_units>  (579) 
nM

>  <record_id>  (579) 
937524

>  <document_chembl_id>  (579) 
CHEMBL1221377

>  <bao_format>  (579) 
BAO_0000219

>  <data_validity_description>  (579) 
None

>  <activity_id>  (579) 
3412281

>  <standard_type>  (579) 
IC50

>  <target_chembl_id>  (579) 
CHEMBL233

>  <data_validity_comment>  (579) 
None

>  <published_value>  (579) 
721

>  <document_year>  (579) 
2010

>  <target_pref_name>  (579) 
Mu opioid receptor

>  <assay_chembl_id>  (579) 
CHEMBL1225862

>  <standard_relation>  (579) 
=

>  <assay_description>  (579) 
Antagonist activity at human mu opioid receptor expressed in HEK cells assessed as inhibition of DAMGO-induced [35S]GTPgammaS binding

>  <published_relation>  (579) 
=

>  <standard_value>  (579) 
721

>  <qudt_units>  (579) 
http://www.openphacts.org/units/Nanomolar

>  <target_tax_id>  (579) 
9606

>  <bao_label>  (579) 
cell-based format

>  <published_units>  (579) 
nM

>  <pchembl_value>  (579) 
6.14

>  <published_type>  (579) 
IC50

>  <activity_comment>  (579) 
None

$$$$

     RDKit          

 25 28  0  0  0  0  0  0  0  0999 V2000
    0.0000    0.0000    0.0000 N   0  0  0  0  0  0  0  0  0  0  0  0
    0.0000    0.0000    0.0000 C   0  0  0  0  0  0  0  0  0  0  0  0
    0.0000    0.0000    0.0000 O   0  0  0  0  0  0  0  0  0  0  0  0
    0.0000    0.0000    0.0000 C   0  0  0  0  0  0  0  0  0  0  0  0
    0.0000    0.0000    0.0000 C   0  0  0  0  0  0  0  0  0  0  0  0
    0.0000    0.0000    0.0000 C   0  0  0  0  0  0  0  0  0  0  0  0
    0.0000    0.0000    0.0000 C   0  0  0  0  0  0  0  0  0  0  0  0
    0.0000    0.0000    0.0000 C   0  0  0  0  0  0  0  0  0  0  0  0
    0.0000    0.0000    0.0000 O   0  0  0  0  0  0  0  0  0  0  0  0
    0.0000    0.0000    0.0000 C   0  0  0  0  0  0  0  0  0  0  0  0
    0.0000    0.0000    0.0000 C   0  0  0  0  0  0  0  0  0  0  0  0
    0.0000    0.0000    0.0000 C   0  0  0  0  0  0  0  0  0  0  0  0
    0.0000    0.0000    0.0000 C   0  0  0  0  0  0  0  0  0  0  0  0
    0.0000    0.0000    0.0000 C   0  0  0  0  0  0  0  0  0  0  0  0
    0.0000    0.0000    0.0000 C   0  0  0  0  0  0  0  0  0  0  0  0
    0.0000    0.0000    0.0000 C   0  0  0  0  0  0  0  0  0  0  0  0
    0.0000    0.0000    0.0000 N   0  0  0  0  0  0  0  0  0  0  0  0
    0.0000    0.0000    0.0000 C   0  0  0  0  0  0  0  0  0  0  0  0
    0.0000    0.0000    0.0000 C   0  0  0  0  0  0  0  0  0  0  0  0
    0.0000    0.0000    0.0000 C   0  0  0  0  0  0  0  0  0  0  0  0
    0.0000    0.0000    0.0000 C   0  0  0  0  0  0  0  0  0  0  0  0
    0.0000    0.0000    0.0000 C   0  0  0  0  0  0  0  0  0  0  0  0
    0.0000    0.0000    0.0000 C   0  0  0  0  0  0  0  0  0  0  0  0
    0.0000    0.0000    0.0000 C   0  0  0  0  0  0  0  0  0  0  0  0
    0.0000    0.0000    0.0000 C   0  0  0  0  0  0  0  0  0  0  0  0
  1  2  1  0
  2  3  2  0
  2  4  1  0
  4  5  2  0
  5  6  1  0
  6  7  2  0
  7  8  1  0
  8  9  1  0
  9 10  1  0
 10 11  1  0
 11 12  1  0
 12 13  1  0
 13 14  1  0
 14 15  1  0
 15 16  1  0
 15 17  1  0
 17 18  1  0
 18 19  1  0
 19 20  1  0
 20 21  1  0
 21 22  1  0
 22 23  1  0
 23 24  1  0
  8 25  2  0
 25  4  1  0
 16 10  1  0
 17 12  1  0
 24 19  1  0
M  END
>  <pIC50>  (580) 
5.74

>  <ChEMBL_ID>  (580) 
CHEMBL1223816

>  <document_journal>  (580) 
Bioorg. Med. Chem. Lett.

>  <bao_endpoint>  (580) 
BAO_0000190

>  <potential_duplicate>  (580) 
False

>  <uo_units>  (580) 
UO_0000065

>  <canonical_smiles>  (580) 
NC(=O)c1cccc(O[C@H]2C[C@H]3CC[C@@H](C2)N3CC4CCCCC4)c1

>  <parent_molecule_chembl_id>  (580) 
CHEMBL1223816

>  <assay_type>  (580) 
F

>  <src_id>  (580) 
1

>  <ligand_efficiency>  (580) 
None

>  <standard_flag>  (580) 
True

>  <molecule_chembl_id>  (580) 
CHEMBL1223816

>  <target_organism>  (580) 
Homo sapiens

>  <standard_units>  (580) 
nM

>  <record_id>  (580) 
937525

>  <document_chembl_id>  (580) 
CHEMBL1221377

>  <bao_format>  (580) 
BAO_0000219

>  <data_validity_description>  (580) 
None

>  <activity_id>  (580) 
3412282

>  <standard_type>  (580) 
IC50

>  <target_chembl_id>  (580) 
CHEMBL233

>  <data_validity_comment>  (580) 
None

>  <published_value>  (580) 
1826

>  <document_year>  (580) 
2010

>  <target_pref_name>  (580) 
Mu opioid receptor

>  <assay_chembl_id>  (580) 
CHEMBL1225862

>  <standard_relation>  (580) 
=

>  <assay_description>  (580) 
Antagonist activity at human mu opioid receptor expressed in HEK cells assessed as inhibition of DAMGO-induced [35S]GTPgammaS binding

>  <published_relation>  (580) 
=

>  <standard_value>  (580) 
1826

>  <qudt_units>  (580) 
http://www.openphacts.org/units/Nanomolar

>  <target_tax_id>  (580) 
9606

>  <bao_label>  (580) 
cell-based format

>  <published_units>  (580) 
nM

>  <pchembl_value>  (580) 
5.74

>  <published_type>  (580) 
IC50

>  <activity_comment>  (580) 
None

$$$$

     RDKit          

 32 35  0  0  0  0  0  0  0  0999 V2000
    0.0000    0.0000    0.0000 C   0  0  0  0  0  0  0  0  0  0  0  0
    0.0000    0.0000    0.0000 N   0  0  0  0  0  0  0  0  0  0  0  0
    0.0000    0.0000    0.0000 C   0  0  0  0  0  0  0  0  0  0  0  0
    0.0000    0.0000    0.0000 C   0  0  0  0  0  0  0  0  0  0  0  0
    0.0000    0.0000    0.0000 O   0  0  0  0  0  0  0  0  0  0  0  0
    0.0000    0.0000    0.0000 N   0  0  0  0  0  0  0  0  0  0  0  0
    0.0000    0.0000    0.0000 C   0  0  0  0  0  0  0  0  0  0  0  0
    0.0000    0.0000    0.0000 C   0  0  0  0  0  0  0  0  0  0  0  0
    0.0000    0.0000    0.0000 C   0  0  0  0  0  0  0  0  0  0  0  0
    0.0000    0.0000    0.0000 C   0  0  0  0  0  0  0  0  0  0  0  0
    0.0000    0.0000    0.0000 C   0  0  0  0  0  0  0  0  0  0  0  0
    0.0000    0.0000    0.0000 C   0  0  0  0  0  0  0  0  0  0  0  0
    0.0000    0.0000    0.0000 N   0  0  0  0  0  0  0  0  0  0  0  0
    0.0000    0.0000    0.0000 C   0  0  0  0  0  0  0  0  0  0  0  0
    0.0000    0.0000    0.0000 C   0  0  0  0  0  0  0  0  0  0  0  0
    0.0000    0.0000    0.0000 C   0  0  0  0  0  0  0  0  0  0  0  0
    0.0000    0.0000    0.0000 C   0  0  0  0  0  0  0  0  0  0  0  0
    0.0000    0.0000    0.0000 C   0  0  0  0  0  0  0  0  0  0  0  0
    0.0000    0.0000    0.0000 C   0  0  0  0  0  0  0  0  0  0  0  0
    0.0000    0.0000    0.0000 C   0  0  0  0  0  0  0  0  0  0  0  0
    0.0000    0.0000    0.0000 O   0  0  0  0  0  0  0  0  0  0  0  0
    0.0000    0.0000    0.0000 C   0  0  0  0  0  0  0  0  0  0  0  0
    0.0000    0.0000    0.0000 C   0  0  0  0  0  0  0  0  0  0  0  0
    0.0000    0.0000    0.0000 C   0  0  0  0  0  0  0  0  0  0  0  0
    0.0000    0.0000    0.0000 C   0  0  0  0  0  0  0  0  0  0  0  0
    0.0000    0.0000    0.0000 C   0  0  0  0  0  0  0  0  0  0  0  0
    0.0000    0.0000    0.0000 C   0  0  0  0  0  0  0  0  0  0  0  0
    0.0000    0.0000    0.0000 C   0  0  0  0  0  0  0  0  0  0  0  0
    0.0000    0.0000    0.0000 O   0  0  0  0  0  0  0  0  0  0  0  0
    0.0000    0.0000    0.0000 N   0  0  0  0  0  0  0  0  0  0  0  0
    0.0000    0.0000    0.0000 C   0  0  0  0  0  0  0  0  0  0  0  0
    0.0000    0.0000    0.0000 C   0  0  0  0  0  0  0  0  0  0  0  0
  1  2  1  0
  2  3  1  0
  2  4  1  0
  4  5  2  0
  4  6  1  0
  6  7  1  0
  7  8  1  0
  8  9  1  0
  9 10  1  0
 10 11  1  0
 11 12  1  0
 12 13  1  0
 13 14  1  0
 14 15  1  0
 15 16  1  0
 16 17  1  0
 17 18  1  0
 18 19  1  0
 19 20  1  0
 19 21  1  0
 21 22  1  0
 22 23  2  0
 23 24  1  0
 24 25  2  0
 25 26  1  0
 26 27  2  0
 26 28  1  0
 28 29  2  0
 28 30  1  0
 10 31  1  0
 31 32  1  0
 32  7  1  0
 17 13  1  0
 20 14  1  0
 27 22  1  0
M  END
>  <pIC50>  (581) 
4.72

>  <ChEMBL_ID>  (581) 
CHEMBL1223870

>  <document_journal>  (581) 
Bioorg. Med. Chem. Lett.

>  <bao_endpoint>  (581) 
BAO_0000190

>  <potential_duplicate>  (581) 
False

>  <uo_units>  (581) 
UO_0000065

>  <canonical_smiles>  (581) 
CN(C)C(=O)N[C@@H]1CC[C@@H](CCN2[C@@H]3CC[C@H]2C[C@H](C3)Oc4cccc(c4)C(=O)N)CC1

>  <parent_molecule_chembl_id>  (581) 
CHEMBL1223870

>  <assay_type>  (581) 
F

>  <src_id>  (581) 
1

>  <ligand_efficiency>  (581) 
None

>  <standard_flag>  (581) 
True

>  <molecule_chembl_id>  (581) 
CHEMBL1223870

>  <target_organism>  (581) 
Homo sapiens

>  <standard_units>  (581) 
nM

>  <record_id>  (581) 
937597

>  <document_chembl_id>  (581) 
CHEMBL1221377

>  <bao_format>  (581) 
BAO_0000219

>  <data_validity_description>  (581) 
None

>  <activity_id>  (581) 
3412284

>  <standard_type>  (581) 
IC50

>  <target_chembl_id>  (581) 
CHEMBL233

>  <data_validity_comment>  (581) 
None

>  <published_value>  (581) 
18862

>  <document_year>  (581) 
2010

>  <target_pref_name>  (581) 
Mu opioid receptor

>  <assay_chembl_id>  (581) 
CHEMBL1225862

>  <standard_relation>  (581) 
=

>  <assay_description>  (581) 
Antagonist activity at human mu opioid receptor expressed in HEK cells assessed as inhibition of DAMGO-induced [35S]GTPgammaS binding

>  <published_relation>  (581) 
=

>  <standard_value>  (581) 
18862

>  <qudt_units>  (581) 
http://www.openphacts.org/units/Nanomolar

>  <target_tax_id>  (581) 
9606

>  <bao_label>  (581) 
cell-based format

>  <published_units>  (581) 
nM

>  <pchembl_value>  (581) 
4.72

>  <published_type>  (581) 
IC50

>  <activity_comment>  (581) 
None

$$$$

     RDKit          

 31 34  0  0  0  0  0  0  0  0999 V2000
    0.0000    0.0000    0.0000 C   0  0  0  0  0  0  0  0  0  0  0  0
    0.0000    0.0000    0.0000 N   0  0  0  0  0  0  0  0  0  0  0  0
    0.0000    0.0000    0.0000 C   0  0  0  0  0  0  0  0  0  0  0  0
    0.0000    0.0000    0.0000 C   0  0  0  0  0  0  0  0  0  0  0  0
    0.0000    0.0000    0.0000 O   0  0  0  0  0  0  0  0  0  0  0  0
    0.0000    0.0000    0.0000 N   0  0  0  0  0  0  0  0  0  0  0  0
    0.0000    0.0000    0.0000 C   0  0  0  0  0  0  0  0  0  0  0  0
    0.0000    0.0000    0.0000 C   0  0  0  0  0  0  0  0  0  0  0  0
    0.0000    0.0000    0.0000 C   0  0  0  0  0  0  0  0  0  0  0  0
    0.0000    0.0000    0.0000 C   0  0  0  0  0  0  0  0  0  0  0  0
    0.0000    0.0000    0.0000 C   0  0  0  0  0  0  0  0  0  0  0  0
    0.0000    0.0000    0.0000 N   0  0  0  0  0  0  0  0  0  0  0  0
    0.0000    0.0000    0.0000 C   0  0  0  0  0  0  0  0  0  0  0  0
    0.0000    0.0000    0.0000 C   0  0  0  0  0  0  0  0  0  0  0  0
    0.0000    0.0000    0.0000 C   0  0  0  0  0  0  0  0  0  0  0  0
    0.0000    0.0000    0.0000 C   0  0  0  0  0  0  0  0  0  0  0  0
    0.0000    0.0000    0.0000 C   0  0  0  0  0  0  0  0  0  0  0  0
    0.0000    0.0000    0.0000 C   0  0  0  0  0  0  0  0  0  0  0  0
    0.0000    0.0000    0.0000 C   0  0  0  0  0  0  0  0  0  0  0  0
    0.0000    0.0000    0.0000 O   0  0  0  0  0  0  0  0  0  0  0  0
    0.0000    0.0000    0.0000 C   0  0  0  0  0  0  0  0  0  0  0  0
    0.0000    0.0000    0.0000 C   0  0  0  0  0  0  0  0  0  0  0  0
    0.0000    0.0000    0.0000 C   0  0  0  0  0  0  0  0  0  0  0  0
    0.0000    0.0000    0.0000 C   0  0  0  0  0  0  0  0  0  0  0  0
    0.0000    0.0000    0.0000 C   0  0  0  0  0  0  0  0  0  0  0  0
    0.0000    0.0000    0.0000 C   0  0  0  0  0  0  0  0  0  0  0  0
    0.0000    0.0000    0.0000 C   0  0  0  0  0  0  0  0  0  0  0  0
    0.0000    0.0000    0.0000 O   0  0  0  0  0  0  0  0  0  0  0  0
    0.0000    0.0000    0.0000 N   0  0  0  0  0  0  0  0  0  0  0  0
    0.0000    0.0000    0.0000 C   0  0  0  0  0  0  0  0  0  0  0  0
    0.0000    0.0000    0.0000 C   0  0  0  0  0  0  0  0  0  0  0  0
  1  2  1  0
  2  3  1  0
  2  4  1  0
  4  5  2  0
  4  6  1  0
  6  7  1  0
  7  8  1  0
  8  9  1  0
  9 10  1  0
 10 11  1  0
 11 12  1  0
 12 13  1  0
 13 14  1  0
 14 15  1  0
 15 16  1  0
 16 17  1  0
 17 18  1  0
 18 19  1  0
 18 20  1  0
 20 21  1  0
 21 22  2  0
 22 23  1  0
 23 24  2  0
 24 25  1  0
 25 26  2  0
 25 27  1  0
 27 28  2  0
 27 29  1  0
 10 30  1  0
 30 31  1  0
 31  7  1  0
 16 12  1  0
 19 13  1  0
 26 21  1  0
M  END
>  <pIC50>  (582) 
4.73

>  <ChEMBL_ID>  (582) 
CHEMBL1223871

>  <document_journal>  (582) 
Bioorg. Med. Chem. Lett.

>  <bao_endpoint>  (582) 
BAO_0000190

>  <potential_duplicate>  (582) 
False

>  <uo_units>  (582) 
UO_0000065

>  <canonical_smiles>  (582) 
CN(C)C(=O)N[C@@H]1CC[C@H](CN2[C@@H]3CC[C@H]2C[C@H](C3)Oc4cccc(c4)C(=O)N)CC1

>  <parent_molecule_chembl_id>  (582) 
CHEMBL1223871

>  <assay_type>  (582) 
F

>  <src_id>  (582) 
1

>  <ligand_efficiency>  (582) 
None

>  <standard_flag>  (582) 
True

>  <molecule_chembl_id>  (582) 
CHEMBL1223871

>  <target_organism>  (582) 
Homo sapiens

>  <standard_units>  (582) 
nM

>  <record_id>  (582) 
937598

>  <document_chembl_id>  (582) 
CHEMBL1221377

>  <bao_format>  (582) 
BAO_0000219

>  <data_validity_description>  (582) 
None

>  <activity_id>  (582) 
3412285

>  <standard_type>  (582) 
IC50

>  <target_chembl_id>  (582) 
CHEMBL233

>  <data_validity_comment>  (582) 
None

>  <published_value>  (582) 
18513

>  <document_year>  (582) 
2010

>  <target_pref_name>  (582) 
Mu opioid receptor

>  <assay_chembl_id>  (582) 
CHEMBL1225862

>  <standard_relation>  (582) 
=

>  <assay_description>  (582) 
Antagonist activity at human mu opioid receptor expressed in HEK cells assessed as inhibition of DAMGO-induced [35S]GTPgammaS binding

>  <published_relation>  (582) 
=

>  <standard_value>  (582) 
18513

>  <qudt_units>  (582) 
http://www.openphacts.org/units/Nanomolar

>  <target_tax_id>  (582) 
9606

>  <bao_label>  (582) 
cell-based format

>  <published_units>  (582) 
nM

>  <pchembl_value>  (582) 
4.73

>  <published_type>  (582) 
IC50

>  <activity_comment>  (582) 
None

$$$$

     RDKit          

 32 35  0  0  0  0  0  0  0  0999 V2000
    0.0000    0.0000    0.0000 C   0  0  0  0  0  0  0  0  0  0  0  0
    0.0000    0.0000    0.0000 N   0  0  0  0  0  0  0  0  0  0  0  0
    0.0000    0.0000    0.0000 C   0  0  0  0  0  0  0  0  0  0  0  0
    0.0000    0.0000    0.0000 C   0  0  0  0  0  0  0  0  0  0  0  0
    0.0000    0.0000    0.0000 O   0  0  0  0  0  0  0  0  0  0  0  0
    0.0000    0.0000    0.0000 N   0  0  0  0  0  0  0  0  0  0  0  0
    0.0000    0.0000    0.0000 C   0  0  0  0  0  0  0  0  0  0  0  0
    0.0000    0.0000    0.0000 C   0  0  0  0  0  0  0  0  0  0  0  0
    0.0000    0.0000    0.0000 C   0  0  0  0  0  0  0  0  0  0  0  0
    0.0000    0.0000    0.0000 C   0  0  0  0  0  0  0  0  0  0  0  0
    0.0000    0.0000    0.0000 C   0  0  0  0  0  0  0  0  0  0  0  0
    0.0000    0.0000    0.0000 C   0  0  0  0  0  0  0  0  0  0  0  0
    0.0000    0.0000    0.0000 N   0  0  0  0  0  0  0  0  0  0  0  0
    0.0000    0.0000    0.0000 C   0  0  0  0  0  0  0  0  0  0  0  0
    0.0000    0.0000    0.0000 C   0  0  0  0  0  0  0  0  0  0  0  0
    0.0000    0.0000    0.0000 C   0  0  0  0  0  0  0  0  0  0  0  0
    0.0000    0.0000    0.0000 C   0  0  0  0  0  0  0  0  0  0  0  0
    0.0000    0.0000    0.0000 C   0  0  0  0  0  0  0  0  0  0  0  0
    0.0000    0.0000    0.0000 C   0  0  0  0  0  0  0  0  0  0  0  0
    0.0000    0.0000    0.0000 C   0  0  0  0  0  0  0  0  0  0  0  0
    0.0000    0.0000    0.0000 O   0  0  0  0  0  0  0  0  0  0  0  0
    0.0000    0.0000    0.0000 C   0  0  0  0  0  0  0  0  0  0  0  0
    0.0000    0.0000    0.0000 C   0  0  0  0  0  0  0  0  0  0  0  0
    0.0000    0.0000    0.0000 C   0  0  0  0  0  0  0  0  0  0  0  0
    0.0000    0.0000    0.0000 C   0  0  0  0  0  0  0  0  0  0  0  0
    0.0000    0.0000    0.0000 C   0  0  0  0  0  0  0  0  0  0  0  0
    0.0000    0.0000    0.0000 C   0  0  0  0  0  0  0  0  0  0  0  0
    0.0000    0.0000    0.0000 C   0  0  0  0  0  0  0  0  0  0  0  0
    0.0000    0.0000    0.0000 O   0  0  0  0  0  0  0  0  0  0  0  0
    0.0000    0.0000    0.0000 N   0  0  0  0  0  0  0  0  0  0  0  0
    0.0000    0.0000    0.0000 C   0  0  0  0  0  0  0  0  0  0  0  0
    0.0000    0.0000    0.0000 C   0  0  0  0  0  0  0  0  0  0  0  0
  1  2  1  0
  2  3  1  0
  2  4  1  0
  4  5  2  0
  4  6  1  0
  6  7  1  0
  7  8  1  0
  8  9  1  0
  9 10  1  0
 10 11  1  0
 11 12  1  0
 12 13  1  0
 13 14  1  0
 14 15  1  0
 15 16  1  0
 16 17  1  0
 17 18  1  0
 18 19  1  0
 19 20  1  0
 19 21  1  0
 21 22  1  0
 22 23  2  0
 23 24  1  0
 24 25  2  0
 25 26  1  0
 26 27  2  0
 26 28  1  0
 28 29  2  0
 28 30  1  0
 10 31  1  0
 31 32  1  0
 32  7  1  0
 17 13  1  0
 20 14  1  0
 27 22  1  0
M  END
>  <pIC50>  (583) 
4.79

>  <ChEMBL_ID>  (583) 
CHEMBL1223872

>  <document_journal>  (583) 
Bioorg. Med. Chem. Lett.

>  <bao_endpoint>  (583) 
BAO_0000190

>  <potential_duplicate>  (583) 
False

>  <uo_units>  (583) 
UO_0000065

>  <canonical_smiles>  (583) 
CN(C)C(=O)N[C@@H]1CC[C@H](CCN2[C@@H]3CC[C@H]2C[C@H](C3)Oc4cccc(c4)C(=O)N)CC1

>  <parent_molecule_chembl_id>  (583) 
CHEMBL1223872

>  <assay_type>  (583) 
F

>  <src_id>  (583) 
1

>  <ligand_efficiency>  (583) 
None

>  <standard_flag>  (583) 
True

>  <molecule_chembl_id>  (583) 
CHEMBL1223872

>  <target_organism>  (583) 
Homo sapiens

>  <standard_units>  (583) 
nM

>  <record_id>  (583) 
937599

>  <document_chembl_id>  (583) 
CHEMBL1221377

>  <bao_format>  (583) 
BAO_0000219

>  <data_validity_description>  (583) 
None

>  <activity_id>  (583) 
3412286

>  <standard_type>  (583) 
IC50

>  <target_chembl_id>  (583) 
CHEMBL233

>  <data_validity_comment>  (583) 
None

>  <published_value>  (583) 
16334

>  <document_year>  (583) 
2010

>  <target_pref_name>  (583) 
Mu opioid receptor

>  <assay_chembl_id>  (583) 
CHEMBL1225862

>  <standard_relation>  (583) 
=

>  <assay_description>  (583) 
Antagonist activity at human mu opioid receptor expressed in HEK cells assessed as inhibition of DAMGO-induced [35S]GTPgammaS binding

>  <published_relation>  (583) 
=

>  <standard_value>  (583) 
16334

>  <qudt_units>  (583) 
http://www.openphacts.org/units/Nanomolar

>  <target_tax_id>  (583) 
9606

>  <bao_label>  (583) 
cell-based format

>  <published_units>  (583) 
nM

>  <pchembl_value>  (583) 
4.79

>  <published_type>  (583) 
IC50

>  <activity_comment>  (583) 
None

$$$$

     RDKit          

 25 28  0  0  0  0  0  0  0  0999 V2000
    0.0000    0.0000    0.0000 N   0  0  0  0  0  0  0  0  0  0  0  0
    0.0000    0.0000    0.0000 C   0  0  0  0  0  0  0  0  0  0  0  0
    0.0000    0.0000    0.0000 O   0  0  0  0  0  0  0  0  0  0  0  0
    0.0000    0.0000    0.0000 C   0  0  0  0  0  0  0  0  0  0  0  0
    0.0000    0.0000    0.0000 C   0  0  0  0  0  0  0  0  0  0  0  0
    0.0000    0.0000    0.0000 C   0  0  0  0  0  0  0  0  0  0  0  0
    0.0000    0.0000    0.0000 C   0  0  0  0  0  0  0  0  0  0  0  0
    0.0000    0.0000    0.0000 C   0  0  0  0  0  0  0  0  0  0  0  0
    0.0000    0.0000    0.0000 O   0  0  0  0  0  0  0  0  0  0  0  0
    0.0000    0.0000    0.0000 C   0  0  0  0  0  0  0  0  0  0  0  0
    0.0000    0.0000    0.0000 C   0  0  0  0  0  0  0  0  0  0  0  0
    0.0000    0.0000    0.0000 C   0  0  0  0  0  0  0  0  0  0  0  0
    0.0000    0.0000    0.0000 C   0  0  0  0  0  0  0  0  0  0  0  0
    0.0000    0.0000    0.0000 C   0  0  0  0  0  0  0  0  0  0  0  0
    0.0000    0.0000    0.0000 C   0  0  0  0  0  0  0  0  0  0  0  0
    0.0000    0.0000    0.0000 C   0  0  0  0  0  0  0  0  0  0  0  0
    0.0000    0.0000    0.0000 N   0  0  0  0  0  0  0  0  0  0  0  0
    0.0000    0.0000    0.0000 C   0  0  0  0  0  0  0  0  0  0  0  0
    0.0000    0.0000    0.0000 C   0  0  0  0  0  0  0  0  0  0  0  0
    0.0000    0.0000    0.0000 C   0  0  0  0  0  0  0  0  0  0  0  0
    0.0000    0.0000    0.0000 C   0  0  0  0  0  0  0  0  0  0  0  0
    0.0000    0.0000    0.0000 C   0  0  0  0  0  0  0  0  0  0  0  0
    0.0000    0.0000    0.0000 C   0  0  0  0  0  0  0  0  0  0  0  0
    0.0000    0.0000    0.0000 C   0  0  0  0  0  0  0  0  0  0  0  0
    0.0000    0.0000    0.0000 C   0  0  0  0  0  0  0  0  0  0  0  0
  1  2  1  0
  2  3  2  0
  2  4  1  0
  4  5  2  0
  5  6  1  0
  6  7  2  0
  7  8  1  0
  8  9  1  0
  9 10  1  0
 10 11  1  0
 11 12  1  0
 12 13  1  0
 13 14  1  0
 14 15  1  0
 15 16  1  0
 15 17  1  0
 17 18  1  0
 18 19  1  0
 19 20  2  0
 20 21  1  0
 21 22  2  0
 22 23  1  0
 23 24  2  0
  8 25  2  0
 25  4  1  0
 16 10  1  0
 17 12  1  0
 24 19  1  0
M  END
>  <pIC50>  (584) 
4.97

>  <ChEMBL_ID>  (584) 
CHEMBL1223873

>  <document_journal>  (584) 
Bioorg. Med. Chem. Lett.

>  <bao_endpoint>  (584) 
BAO_0000190

>  <potential_duplicate>  (584) 
False

>  <uo_units>  (584) 
UO_0000065

>  <canonical_smiles>  (584) 
NC(=O)c1cccc(O[C@H]2C[C@H]3CC[C@@H](C2)N3Cc4ccccc4)c1

>  <parent_molecule_chembl_id>  (584) 
CHEMBL1223873

>  <assay_type>  (584) 
F

>  <src_id>  (584) 
1

>  <ligand_efficiency>  (584) 
None

>  <standard_flag>  (584) 
True

>  <molecule_chembl_id>  (584) 
CHEMBL1223873

>  <target_organism>  (584) 
Homo sapiens

>  <standard_units>  (584) 
nM

>  <record_id>  (584) 
937600

>  <document_chembl_id>  (584) 
CHEMBL1221377

>  <bao_format>  (584) 
BAO_0000219

>  <data_validity_description>  (584) 
None

>  <activity_id>  (584) 
3412287

>  <standard_type>  (584) 
IC50

>  <target_chembl_id>  (584) 
CHEMBL233

>  <data_validity_comment>  (584) 
None

>  <published_value>  (584) 
10682

>  <document_year>  (584) 
2010

>  <target_pref_name>  (584) 
Mu opioid receptor

>  <assay_chembl_id>  (584) 
CHEMBL1225862

>  <standard_relation>  (584) 
=

>  <assay_description>  (584) 
Antagonist activity at human mu opioid receptor expressed in HEK cells assessed as inhibition of DAMGO-induced [35S]GTPgammaS binding

>  <published_relation>  (584) 
=

>  <standard_value>  (584) 
10682

>  <qudt_units>  (584) 
http://www.openphacts.org/units/Nanomolar

>  <target_tax_id>  (584) 
9606

>  <bao_label>  (584) 
cell-based format

>  <published_units>  (584) 
nM

>  <pchembl_value>  (584) 
4.97

>  <published_type>  (584) 
IC50

>  <activity_comment>  (584) 
None

$$$$

     RDKit          

 25 28  0  0  0  0  0  0  0  0999 V2000
    0.0000    0.0000    0.0000 N   0  0  0  0  0  0  0  0  0  0  0  0
    0.0000    0.0000    0.0000 C   0  0  0  0  0  0  0  0  0  0  0  0
    0.0000    0.0000    0.0000 O   0  0  0  0  0  0  0  0  0  0  0  0
    0.0000    0.0000    0.0000 C   0  0  0  0  0  0  0  0  0  0  0  0
    0.0000    0.0000    0.0000 C   0  0  0  0  0  0  0  0  0  0  0  0
    0.0000    0.0000    0.0000 C   0  0  0  0  0  0  0  0  0  0  0  0
    0.0000    0.0000    0.0000 C   0  0  0  0  0  0  0  0  0  0  0  0
    0.0000    0.0000    0.0000 C   0  0  0  0  0  0  0  0  0  0  0  0
    0.0000    0.0000    0.0000 C   0  0  0  0  0  0  0  0  0  0  0  0
    0.0000    0.0000    0.0000 C   0  0  0  0  0  0  0  0  0  0  0  0
    0.0000    0.0000    0.0000 C   0  0  0  0  0  0  0  0  0  0  0  0
    0.0000    0.0000    0.0000 C   0  0  0  0  0  0  0  0  0  0  0  0
    0.0000    0.0000    0.0000 C   0  0  0  0  0  0  0  0  0  0  0  0
    0.0000    0.0000    0.0000 C   0  0  0  0  0  0  0  0  0  0  0  0
    0.0000    0.0000    0.0000 C   0  0  0  0  0  0  0  0  0  0  0  0
    0.0000    0.0000    0.0000 C   0  0  0  0  0  0  0  0  0  0  0  0
    0.0000    0.0000    0.0000 N   0  0  0  0  0  0  0  0  0  0  0  0
    0.0000    0.0000    0.0000 C   0  0  0  0  0  0  0  0  0  0  0  0
    0.0000    0.0000    0.0000 C   0  0  0  0  0  0  0  0  0  0  0  0
    0.0000    0.0000    0.0000 C   0  0  0  0  0  0  0  0  0  0  0  0
    0.0000    0.0000    0.0000 C   0  0  0  0  0  0  0  0  0  0  0  0
    0.0000    0.0000    0.0000 C   0  0  0  0  0  0  0  0  0  0  0  0
    0.0000    0.0000    0.0000 C   0  0  0  0  0  0  0  0  0  0  0  0
    0.0000    0.0000    0.0000 C   0  0  0  0  0  0  0  0  0  0  0  0
    0.0000    0.0000    0.0000 C   0  0  0  0  0  0  0  0  0  0  0  0
  1  2  1  0
  2  3  2  0
  2  4  1  0
  4  5  2  0
  5  6  1  0
  6  7  2  0
  7  8  1  0
  8  9  1  0
  9 10  1  0
 10 11  1  0
 11 12  1  0
 12 13  1  0
 13 14  1  0
 14 15  1  0
 15 16  1  0
 15 17  1  0
 17 18  1  0
 18 19  1  0
 19 20  2  0
 20 21  1  0
 21 22  2  0
 22 23  1  0
 23 24  2  0
  8 25  2  0
 25  4  1  0
 16 10  1  0
 17 12  1  0
 24 19  1  0
M  END
>  <pIC50>  (585) 
5.4

>  <ChEMBL_ID>  (585) 
CHEMBL1223952

>  <document_journal>  (585) 
Bioorg. Med. Chem. Lett.

>  <bao_endpoint>  (585) 
BAO_0000190

>  <potential_duplicate>  (585) 
False

>  <uo_units>  (585) 
UO_0000065

>  <canonical_smiles>  (585) 
NC(=O)c1cccc(C[C@H]2C[C@H]3CC[C@@H](C2)N3Cc4ccccc4)c1

>  <parent_molecule_chembl_id>  (585) 
CHEMBL1223952

>  <assay_type>  (585) 
F

>  <src_id>  (585) 
1

>  <ligand_efficiency>  (585) 
None

>  <standard_flag>  (585) 
True

>  <molecule_chembl_id>  (585) 
CHEMBL1223952

>  <target_organism>  (585) 
Homo sapiens

>  <standard_units>  (585) 
nM

>  <record_id>  (585) 
937686

>  <document_chembl_id>  (585) 
CHEMBL1221377

>  <bao_format>  (585) 
BAO_0000219

>  <data_validity_description>  (585) 
None

>  <activity_id>  (585) 
3412289

>  <standard_type>  (585) 
IC50

>  <target_chembl_id>  (585) 
CHEMBL233

>  <data_validity_comment>  (585) 
None

>  <published_value>  (585) 
3941

>  <document_year>  (585) 
2010

>  <target_pref_name>  (585) 
Mu opioid receptor

>  <assay_chembl_id>  (585) 
CHEMBL1225862

>  <standard_relation>  (585) 
=

>  <assay_description>  (585) 
Antagonist activity at human mu opioid receptor expressed in HEK cells assessed as inhibition of DAMGO-induced [35S]GTPgammaS binding

>  <published_relation>  (585) 
=

>  <standard_value>  (585) 
3941

>  <qudt_units>  (585) 
http://www.openphacts.org/units/Nanomolar

>  <target_tax_id>  (585) 
9606

>  <bao_label>  (585) 
cell-based format

>  <published_units>  (585) 
nM

>  <pchembl_value>  (585) 
5.4

>  <published_type>  (585) 
IC50

>  <activity_comment>  (585) 
None

$$$$

     RDKit          

 25 28  0  0  0  0  0  0  0  0999 V2000
    0.0000    0.0000    0.0000 N   0  0  0  0  0  0  0  0  0  0  0  0
    0.0000    0.0000    0.0000 C   0  0  0  0  0  0  0  0  0  0  0  0
    0.0000    0.0000    0.0000 O   0  0  0  0  0  0  0  0  0  0  0  0
    0.0000    0.0000    0.0000 C   0  0  0  0  0  0  0  0  0  0  0  0
    0.0000    0.0000    0.0000 C   0  0  0  0  0  0  0  0  0  0  0  0
    0.0000    0.0000    0.0000 C   0  0  0  0  0  0  0  0  0  0  0  0
    0.0000    0.0000    0.0000 C   0  0  0  0  0  0  0  0  0  0  0  0
    0.0000    0.0000    0.0000 C   0  0  0  0  0  0  0  0  0  0  0  0
    0.0000    0.0000    0.0000 C   0  0  0  0  0  0  0  0  0  0  0  0
    0.0000    0.0000    0.0000 C   0  0  0  0  0  0  0  0  0  0  0  0
    0.0000    0.0000    0.0000 C   0  0  0  0  0  0  0  0  0  0  0  0
    0.0000    0.0000    0.0000 C   0  0  0  0  0  0  0  0  0  0  0  0
    0.0000    0.0000    0.0000 C   0  0  0  0  0  0  0  0  0  0  0  0
    0.0000    0.0000    0.0000 C   0  0  0  0  0  0  0  0  0  0  0  0
    0.0000    0.0000    0.0000 C   0  0  0  0  0  0  0  0  0  0  0  0
    0.0000    0.0000    0.0000 C   0  0  0  0  0  0  0  0  0  0  0  0
    0.0000    0.0000    0.0000 N   0  0  0  0  0  0  0  0  0  0  0  0
    0.0000    0.0000    0.0000 C   0  0  0  0  0  0  0  0  0  0  0  0
    0.0000    0.0000    0.0000 C   0  0  0  0  0  0  0  0  0  0  0  0
    0.0000    0.0000    0.0000 C   0  0  0  0  0  0  0  0  0  0  0  0
    0.0000    0.0000    0.0000 C   0  0  0  0  0  0  0  0  0  0  0  0
    0.0000    0.0000    0.0000 C   0  0  0  0  0  0  0  0  0  0  0  0
    0.0000    0.0000    0.0000 C   0  0  0  0  0  0  0  0  0  0  0  0
    0.0000    0.0000    0.0000 C   0  0  0  0  0  0  0  0  0  0  0  0
    0.0000    0.0000    0.0000 C   0  0  0  0  0  0  0  0  0  0  0  0
  1  2  1  0
  2  3  2  0
  2  4  1  0
  4  5  2  0
  5  6  1  0
  6  7  2  0
  7  8  1  0
  8  9  1  0
  9 10  1  0
 10 11  1  0
 11 12  1  0
 12 13  1  0
 13 14  1  0
 14 15  1  0
 15 16  1  0
 15 17  1  0
 17 18  1  0
 18 19  1  0
 19 20  2  0
 20 21  1  0
 21 22  2  0
 22 23  1  0
 23 24  2  0
  8 25  2  0
 25  4  1  0
 16 10  1  0
 17 12  1  0
 24 19  1  0
M  END
>  <pIC50>  (586) 
4.92

>  <ChEMBL_ID>  (586) 
CHEMBL1223953

>  <document_journal>  (586) 
Bioorg. Med. Chem. Lett.

>  <bao_endpoint>  (586) 
BAO_0000190

>  <potential_duplicate>  (586) 
False

>  <uo_units>  (586) 
UO_0000065

>  <canonical_smiles>  (586) 
NC(=O)c1cccc(C[C@@H]2C[C@H]3CC[C@@H](C2)N3Cc4ccccc4)c1

>  <parent_molecule_chembl_id>  (586) 
CHEMBL1223953

>  <assay_type>  (586) 
F

>  <src_id>  (586) 
1

>  <ligand_efficiency>  (586) 
None

>  <standard_flag>  (586) 
True

>  <molecule_chembl_id>  (586) 
CHEMBL1223953

>  <target_organism>  (586) 
Homo sapiens

>  <standard_units>  (586) 
nM

>  <record_id>  (586) 
937687

>  <document_chembl_id>  (586) 
CHEMBL1221377

>  <bao_format>  (586) 
BAO_0000219

>  <data_validity_description>  (586) 
None

>  <activity_id>  (586) 
3412290

>  <standard_type>  (586) 
IC50

>  <target_chembl_id>  (586) 
CHEMBL233

>  <data_validity_comment>  (586) 
None

>  <published_value>  (586) 
11910

>  <document_year>  (586) 
2010

>  <target_pref_name>  (586) 
Mu opioid receptor

>  <assay_chembl_id>  (586) 
CHEMBL1225862

>  <standard_relation>  (586) 
=

>  <assay_description>  (586) 
Antagonist activity at human mu opioid receptor expressed in HEK cells assessed as inhibition of DAMGO-induced [35S]GTPgammaS binding

>  <published_relation>  (586) 
=

>  <standard_value>  (586) 
11910

>  <qudt_units>  (586) 
http://www.openphacts.org/units/Nanomolar

>  <target_tax_id>  (586) 
9606

>  <bao_label>  (586) 
cell-based format

>  <published_units>  (586) 
nM

>  <pchembl_value>  (586) 
4.92

>  <published_type>  (586) 
IC50

>  <activity_comment>  (586) 
None

$$$$

     RDKit          

 25 28  0  0  0  0  0  0  0  0999 V2000
    0.0000    0.0000    0.0000 N   0  0  0  0  0  0  0  0  0  0  0  0
    0.0000    0.0000    0.0000 C   0  0  0  0  0  0  0  0  0  0  0  0
    0.0000    0.0000    0.0000 O   0  0  0  0  0  0  0  0  0  0  0  0
    0.0000    0.0000    0.0000 C   0  0  0  0  0  0  0  0  0  0  0  0
    0.0000    0.0000    0.0000 C   0  0  0  0  0  0  0  0  0  0  0  0
    0.0000    0.0000    0.0000 C   0  0  0  0  0  0  0  0  0  0  0  0
    0.0000    0.0000    0.0000 C   0  0  0  0  0  0  0  0  0  0  0  0
    0.0000    0.0000    0.0000 C   0  0  0  0  0  0  0  0  0  0  0  0
    0.0000    0.0000    0.0000 S   0  0  0  0  0  0  0  0  0  0  0  0
    0.0000    0.0000    0.0000 C   0  0  0  0  0  0  0  0  0  0  0  0
    0.0000    0.0000    0.0000 C   0  0  0  0  0  0  0  0  0  0  0  0
    0.0000    0.0000    0.0000 C   0  0  0  0  0  0  0  0  0  0  0  0
    0.0000    0.0000    0.0000 C   0  0  0  0  0  0  0  0  0  0  0  0
    0.0000    0.0000    0.0000 C   0  0  0  0  0  0  0  0  0  0  0  0
    0.0000    0.0000    0.0000 C   0  0  0  0  0  0  0  0  0  0  0  0
    0.0000    0.0000    0.0000 C   0  0  0  0  0  0  0  0  0  0  0  0
    0.0000    0.0000    0.0000 N   0  0  0  0  0  0  0  0  0  0  0  0
    0.0000    0.0000    0.0000 C   0  0  0  0  0  0  0  0  0  0  0  0
    0.0000    0.0000    0.0000 C   0  0  0  0  0  0  0  0  0  0  0  0
    0.0000    0.0000    0.0000 C   0  0  0  0  0  0  0  0  0  0  0  0
    0.0000    0.0000    0.0000 C   0  0  0  0  0  0  0  0  0  0  0  0
    0.0000    0.0000    0.0000 C   0  0  0  0  0  0  0  0  0  0  0  0
    0.0000    0.0000    0.0000 C   0  0  0  0  0  0  0  0  0  0  0  0
    0.0000    0.0000    0.0000 C   0  0  0  0  0  0  0  0  0  0  0  0
    0.0000    0.0000    0.0000 C   0  0  0  0  0  0  0  0  0  0  0  0
  1  2  1  0
  2  3  2  0
  2  4  1  0
  4  5  2  0
  5  6  1  0
  6  7  2  0
  7  8  1  0
  8  9  1  0
  9 10  1  0
 10 11  1  0
 11 12  1  0
 12 13  1  0
 13 14  1  0
 14 15  1  0
 15 16  1  0
 15 17  1  0
 17 18  1  0
 18 19  1  0
 19 20  2  0
 20 21  1  0
 21 22  2  0
 22 23  1  0
 23 24  2  0
  8 25  2  0
 25  4  1  0
 16 10  1  0
 17 12  1  0
 24 19  1  0
M  END
>  <pIC50>  (587) 
5.51

>  <ChEMBL_ID>  (587) 
CHEMBL1223954

>  <document_journal>  (587) 
Bioorg. Med. Chem. Lett.

>  <bao_endpoint>  (587) 
BAO_0000190

>  <potential_duplicate>  (587) 
False

>  <uo_units>  (587) 
UO_0000065

>  <canonical_smiles>  (587) 
NC(=O)c1cccc(S[C@H]2C[C@H]3CC[C@@H](C2)N3Cc4ccccc4)c1

>  <parent_molecule_chembl_id>  (587) 
CHEMBL1223954

>  <assay_type>  (587) 
F

>  <src_id>  (587) 
1

>  <ligand_efficiency>  (587) 
None

>  <standard_flag>  (587) 
True

>  <molecule_chembl_id>  (587) 
CHEMBL1223954

>  <target_organism>  (587) 
Homo sapiens

>  <standard_units>  (587) 
nM

>  <record_id>  (587) 
937688

>  <document_chembl_id>  (587) 
CHEMBL1221377

>  <bao_format>  (587) 
BAO_0000219

>  <data_validity_description>  (587) 
None

>  <activity_id>  (587) 
3412291

>  <standard_type>  (587) 
IC50

>  <target_chembl_id>  (587) 
CHEMBL233

>  <data_validity_comment>  (587) 
None

>  <published_value>  (587) 
3077

>  <document_year>  (587) 
2010

>  <target_pref_name>  (587) 
Mu opioid receptor

>  <assay_chembl_id>  (587) 
CHEMBL1225862

>  <standard_relation>  (587) 
=

>  <assay_description>  (587) 
Antagonist activity at human mu opioid receptor expressed in HEK cells assessed as inhibition of DAMGO-induced [35S]GTPgammaS binding

>  <published_relation>  (587) 
=

>  <standard_value>  (587) 
3077

>  <qudt_units>  (587) 
http://www.openphacts.org/units/Nanomolar

>  <target_tax_id>  (587) 
9606

>  <bao_label>  (587) 
cell-based format

>  <published_units>  (587) 
nM

>  <pchembl_value>  (587) 
5.51

>  <published_type>  (587) 
IC50

>  <activity_comment>  (587) 
None

$$$$

     RDKit          

 25 28  0  0  0  0  0  0  0  0999 V2000
    0.0000    0.0000    0.0000 N   0  0  0  0  0  0  0  0  0  0  0  0
    0.0000    0.0000    0.0000 C   0  0  0  0  0  0  0  0  0  0  0  0
    0.0000    0.0000    0.0000 O   0  0  0  0  0  0  0  0  0  0  0  0
    0.0000    0.0000    0.0000 C   0  0  0  0  0  0  0  0  0  0  0  0
    0.0000    0.0000    0.0000 C   0  0  0  0  0  0  0  0  0  0  0  0
    0.0000    0.0000    0.0000 C   0  0  0  0  0  0  0  0  0  0  0  0
    0.0000    0.0000    0.0000 C   0  0  0  0  0  0  0  0  0  0  0  0
    0.0000    0.0000    0.0000 C   0  0  0  0  0  0  0  0  0  0  0  0
    0.0000    0.0000    0.0000 N   0  0  0  0  0  0  0  0  0  0  0  0
    0.0000    0.0000    0.0000 C   0  0  0  0  0  0  0  0  0  0  0  0
    0.0000    0.0000    0.0000 C   0  0  0  0  0  0  0  0  0  0  0  0
    0.0000    0.0000    0.0000 C   0  0  0  0  0  0  0  0  0  0  0  0
    0.0000    0.0000    0.0000 C   0  0  0  0  0  0  0  0  0  0  0  0
    0.0000    0.0000    0.0000 C   0  0  0  0  0  0  0  0  0  0  0  0
    0.0000    0.0000    0.0000 C   0  0  0  0  0  0  0  0  0  0  0  0
    0.0000    0.0000    0.0000 C   0  0  0  0  0  0  0  0  0  0  0  0
    0.0000    0.0000    0.0000 N   0  0  0  0  0  0  0  0  0  0  0  0
    0.0000    0.0000    0.0000 C   0  0  0  0  0  0  0  0  0  0  0  0
    0.0000    0.0000    0.0000 C   0  0  0  0  0  0  0  0  0  0  0  0
    0.0000    0.0000    0.0000 C   0  0  0  0  0  0  0  0  0  0  0  0
    0.0000    0.0000    0.0000 C   0  0  0  0  0  0  0  0  0  0  0  0
    0.0000    0.0000    0.0000 C   0  0  0  0  0  0  0  0  0  0  0  0
    0.0000    0.0000    0.0000 C   0  0  0  0  0  0  0  0  0  0  0  0
    0.0000    0.0000    0.0000 C   0  0  0  0  0  0  0  0  0  0  0  0
    0.0000    0.0000    0.0000 C   0  0  0  0  0  0  0  0  0  0  0  0
  1  2  1  0
  2  3  2  0
  2  4  1  0
  4  5  2  0
  5  6  1  0
  6  7  2  0
  7  8  1  0
  8  9  1  0
  9 10  1  0
 10 11  1  0
 11 12  1  0
 12 13  1  0
 13 14  1  0
 14 15  1  0
 15 16  1  0
 15 17  1  0
 17 18  1  0
 18 19  1  0
 19 20  2  0
 20 21  1  0
 21 22  2  0
 22 23  1  0
 23 24  2  0
  8 25  2  0
 25  4  1  0
 16 10  1  0
 17 12  1  0
 24 19  1  0
M  END
>  <pIC50>  (588) 
4.77

>  <ChEMBL_ID>  (588) 
CHEMBL1224065

>  <document_journal>  (588) 
Bioorg. Med. Chem. Lett.

>  <bao_endpoint>  (588) 
BAO_0000190

>  <potential_duplicate>  (588) 
False

>  <uo_units>  (588) 
UO_0000065

>  <canonical_smiles>  (588) 
NC(=O)c1cccc(N[C@H]2C[C@H]3CC[C@@H](C2)N3Cc4ccccc4)c1

>  <parent_molecule_chembl_id>  (588) 
CHEMBL1224065

>  <assay_type>  (588) 
F

>  <src_id>  (588) 
1

>  <ligand_efficiency>  (588) 
None

>  <standard_flag>  (588) 
True

>  <molecule_chembl_id>  (588) 
CHEMBL1224065

>  <target_organism>  (588) 
Homo sapiens

>  <standard_units>  (588) 
nM

>  <record_id>  (588) 
937819

>  <document_chembl_id>  (588) 
CHEMBL1221377

>  <bao_format>  (588) 
BAO_0000219

>  <data_validity_description>  (588) 
None

>  <activity_id>  (588) 
3412293

>  <standard_type>  (588) 
IC50

>  <target_chembl_id>  (588) 
CHEMBL233

>  <data_validity_comment>  (588) 
None

>  <published_value>  (588) 
17039

>  <document_year>  (588) 
2010

>  <target_pref_name>  (588) 
Mu opioid receptor

>  <assay_chembl_id>  (588) 
CHEMBL1225862

>  <standard_relation>  (588) 
=

>  <assay_description>  (588) 
Antagonist activity at human mu opioid receptor expressed in HEK cells assessed as inhibition of DAMGO-induced [35S]GTPgammaS binding

>  <published_relation>  (588) 
=

>  <standard_value>  (588) 
17039

>  <qudt_units>  (588) 
http://www.openphacts.org/units/Nanomolar

>  <target_tax_id>  (588) 
9606

>  <bao_label>  (588) 
cell-based format

>  <published_units>  (588) 
nM

>  <pchembl_value>  (588) 
4.77

>  <published_type>  (588) 
IC50

>  <activity_comment>  (588) 
None

$$$$

     RDKit          

 26 29  0  0  0  0  0  0  0  0999 V2000
    0.0000    0.0000    0.0000 N   0  0  0  0  0  0  0  0  0  0  0  0
    0.0000    0.0000    0.0000 C   0  0  0  0  0  0  0  0  0  0  0  0
    0.0000    0.0000    0.0000 O   0  0  0  0  0  0  0  0  0  0  0  0
    0.0000    0.0000    0.0000 C   0  0  0  0  0  0  0  0  0  0  0  0
    0.0000    0.0000    0.0000 C   0  0  0  0  0  0  0  0  0  0  0  0
    0.0000    0.0000    0.0000 C   0  0  0  0  0  0  0  0  0  0  0  0
    0.0000    0.0000    0.0000 F   0  0  0  0  0  0  0  0  0  0  0  0
    0.0000    0.0000    0.0000 C   0  0  0  0  0  0  0  0  0  0  0  0
    0.0000    0.0000    0.0000 C   0  0  0  0  0  0  0  0  0  0  0  0
    0.0000    0.0000    0.0000 O   0  0  0  0  0  0  0  0  0  0  0  0
    0.0000    0.0000    0.0000 C   0  0  0  0  0  0  0  0  0  0  0  0
    0.0000    0.0000    0.0000 C   0  0  0  0  0  0  0  0  0  0  0  0
    0.0000    0.0000    0.0000 C   0  0  0  0  0  0  0  0  0  0  0  0
    0.0000    0.0000    0.0000 C   0  0  0  0  0  0  0  0  0  0  0  0
    0.0000    0.0000    0.0000 C   0  0  0  0  0  0  0  0  0  0  0  0
    0.0000    0.0000    0.0000 C   0  0  0  0  0  0  0  0  0  0  0  0
    0.0000    0.0000    0.0000 C   0  0  0  0  0  0  0  0  0  0  0  0
    0.0000    0.0000    0.0000 N   0  0  0  0  0  0  0  0  0  0  0  0
    0.0000    0.0000    0.0000 C   0  0  0  0  0  0  0  0  0  0  0  0
    0.0000    0.0000    0.0000 C   0  0  0  0  0  0  0  0  0  0  0  0
    0.0000    0.0000    0.0000 C   0  0  0  0  0  0  0  0  0  0  0  0
    0.0000    0.0000    0.0000 C   0  0  0  0  0  0  0  0  0  0  0  0
    0.0000    0.0000    0.0000 C   0  0  0  0  0  0  0  0  0  0  0  0
    0.0000    0.0000    0.0000 C   0  0  0  0  0  0  0  0  0  0  0  0
    0.0000    0.0000    0.0000 C   0  0  0  0  0  0  0  0  0  0  0  0
    0.0000    0.0000    0.0000 C   0  0  0  0  0  0  0  0  0  0  0  0
  1  2  1  0
  2  3  2  0
  2  4  1  0
  4  5  2  0
  5  6  1  0
  6  7  1  0
  6  8  2  0
  8  9  1  0
  9 10  1  0
 10 11  1  0
 11 12  1  0
 12 13  1  0
 13 14  1  0
 14 15  1  0
 15 16  1  0
 16 17  1  0
 16 18  1  0
 18 19  1  0
 19 20  1  0
 20 21  2  0
 21 22  1  0
 22 23  2  0
 23 24  1  0
 24 25  2  0
  9 26  2  0
 26  4  1  0
 17 11  1  0
 18 13  1  0
 25 20  1  0
M  END
>  <pIC50>  (589) 
5.09

>  <ChEMBL_ID>  (589) 
CHEMBL1224139

>  <document_journal>  (589) 
Bioorg. Med. Chem. Lett.

>  <bao_endpoint>  (589) 
BAO_0000190

>  <potential_duplicate>  (589) 
False

>  <uo_units>  (589) 
UO_0000065

>  <canonical_smiles>  (589) 
NC(=O)c1cc(F)cc(O[C@H]2C[C@H]3CC[C@@H](C2)N3Cc4ccccc4)c1

>  <parent_molecule_chembl_id>  (589) 
CHEMBL1224139

>  <assay_type>  (589) 
F

>  <src_id>  (589) 
1

>  <ligand_efficiency>  (589) 
None

>  <standard_flag>  (589) 
True

>  <molecule_chembl_id>  (589) 
CHEMBL1224139

>  <target_organism>  (589) 
Homo sapiens

>  <standard_units>  (589) 
nM

>  <record_id>  (589) 
937901

>  <document_chembl_id>  (589) 
CHEMBL1221377

>  <bao_format>  (589) 
BAO_0000219

>  <data_validity_description>  (589) 
None

>  <activity_id>  (589) 
3412299

>  <standard_type>  (589) 
IC50

>  <target_chembl_id>  (589) 
CHEMBL233

>  <data_validity_comment>  (589) 
None

>  <published_value>  (589) 
8084

>  <document_year>  (589) 
2010

>  <target_pref_name>  (589) 
Mu opioid receptor

>  <assay_chembl_id>  (589) 
CHEMBL1225862

>  <standard_relation>  (589) 
=

>  <assay_description>  (589) 
Antagonist activity at human mu opioid receptor expressed in HEK cells assessed as inhibition of DAMGO-induced [35S]GTPgammaS binding

>  <published_relation>  (589) 
=

>  <standard_value>  (589) 
8084

>  <qudt_units>  (589) 
http://www.openphacts.org/units/Nanomolar

>  <target_tax_id>  (589) 
9606

>  <bao_label>  (589) 
cell-based format

>  <published_units>  (589) 
nM

>  <pchembl_value>  (589) 
5.09

>  <published_type>  (589) 
IC50

>  <activity_comment>  (589) 
None

$$$$

     RDKit          

 26 29  0  0  0  0  0  0  0  0999 V2000
    0.0000    0.0000    0.0000 C   0  0  0  0  0  0  0  0  0  0  0  0
    0.0000    0.0000    0.0000 C   0  0  0  0  0  0  0  0  0  0  0  0
    0.0000    0.0000    0.0000 C   0  0  0  0  0  0  0  0  0  0  0  0
    0.0000    0.0000    0.0000 C   0  0  0  0  0  0  0  0  0  0  0  0
    0.0000    0.0000    0.0000 O   0  0  0  0  0  0  0  0  0  0  0  0
    0.0000    0.0000    0.0000 C   0  0  0  0  0  0  0  0  0  0  0  0
    0.0000    0.0000    0.0000 C   0  0  0  0  0  0  0  0  0  0  0  0
    0.0000    0.0000    0.0000 C   0  0  0  0  0  0  0  0  0  0  0  0
    0.0000    0.0000    0.0000 C   0  0  0  0  0  0  0  0  0  0  0  0
    0.0000    0.0000    0.0000 C   0  0  0  0  0  0  0  0  0  0  0  0
    0.0000    0.0000    0.0000 C   0  0  0  0  0  0  0  0  0  0  0  0
    0.0000    0.0000    0.0000 C   0  0  0  0  0  0  0  0  0  0  0  0
    0.0000    0.0000    0.0000 N   0  0  0  0  0  0  0  0  0  0  0  0
    0.0000    0.0000    0.0000 C   0  0  0  0  0  0  0  0  0  0  0  0
    0.0000    0.0000    0.0000 C   0  0  0  0  0  0  0  0  0  0  0  0
    0.0000    0.0000    0.0000 C   0  0  0  0  0  0  0  0  0  0  0  0
    0.0000    0.0000    0.0000 C   0  0  0  0  0  0  0  0  0  0  0  0
    0.0000    0.0000    0.0000 C   0  0  0  0  0  0  0  0  0  0  0  0
    0.0000    0.0000    0.0000 C   0  0  0  0  0  0  0  0  0  0  0  0
    0.0000    0.0000    0.0000 C   0  0  0  0  0  0  0  0  0  0  0  0
    0.0000    0.0000    0.0000 C   0  0  0  0  0  0  0  0  0  0  0  0
    0.0000    0.0000    0.0000 C   0  0  0  0  0  0  0  0  0  0  0  0
    0.0000    0.0000    0.0000 C   0  0  0  0  0  0  0  0  0  0  0  0
    0.0000    0.0000    0.0000 C   0  0  0  0  0  0  0  0  0  0  0  0
    0.0000    0.0000    0.0000 O   0  0  0  0  0  0  0  0  0  0  0  0
    0.0000    0.0000    0.0000 N   0  0  0  0  0  0  0  0  0  0  0  0
  1  2  1  0
  2  3  2  0
  3  4  1  0
  4  5  1  0
  5  6  1  0
  6  7  1  0
  7  8  1  0
  8  9  1  0
  9 10  1  0
 10 11  1  0
 11 12  1  0
 11 13  1  0
 13 14  1  0
 14 15  1  0
 15 16  2  0
 16 17  1  0
 17 18  2  0
 18 19  1  0
 19 20  2  0
  4 21  2  0
 21 22  1  0
 22 23  2  0
 22 24  1  0
 24 25  2  0
 24 26  1  0
 23  2  1  0
 12  6  1  0
 13  8  1  0
 20 15  1  0
M  END
>  <pIC50>  (590) 
4.77

>  <ChEMBL_ID>  (590) 
CHEMBL1224140

>  <document_journal>  (590) 
Bioorg. Med. Chem. Lett.

>  <bao_endpoint>  (590) 
BAO_0000190

>  <potential_duplicate>  (590) 
False

>  <uo_units>  (590) 
UO_0000065

>  <canonical_smiles>  (590) 
Cc1cc(O[C@H]2C[C@H]3CC[C@@H](C2)N3Cc4ccccc4)cc(c1)C(=O)N

>  <parent_molecule_chembl_id>  (590) 
CHEMBL1224140

>  <assay_type>  (590) 
F

>  <src_id>  (590) 
1

>  <ligand_efficiency>  (590) 
None

>  <standard_flag>  (590) 
True

>  <molecule_chembl_id>  (590) 
CHEMBL1224140

>  <target_organism>  (590) 
Homo sapiens

>  <standard_units>  (590) 
nM

>  <record_id>  (590) 
937902

>  <document_chembl_id>  (590) 
CHEMBL1221377

>  <bao_format>  (590) 
BAO_0000219

>  <data_validity_description>  (590) 
None

>  <activity_id>  (590) 
3412300

>  <standard_type>  (590) 
IC50

>  <target_chembl_id>  (590) 
CHEMBL233

>  <data_validity_comment>  (590) 
None

>  <published_value>  (590) 
17039

>  <document_year>  (590) 
2010

>  <target_pref_name>  (590) 
Mu opioid receptor

>  <assay_chembl_id>  (590) 
CHEMBL1225862

>  <standard_relation>  (590) 
=

>  <assay_description>  (590) 
Antagonist activity at human mu opioid receptor expressed in HEK cells assessed as inhibition of DAMGO-induced [35S]GTPgammaS binding

>  <published_relation>  (590) 
=

>  <standard_value>  (590) 
17039

>  <qudt_units>  (590) 
http://www.openphacts.org/units/Nanomolar

>  <target_tax_id>  (590) 
9606

>  <bao_label>  (590) 
cell-based format

>  <published_units>  (590) 
nM

>  <pchembl_value>  (590) 
4.77

>  <published_type>  (590) 
IC50

>  <activity_comment>  (590) 
None

$$$$

     RDKit          

 26 29  0  0  0  0  0  0  0  0999 V2000
    0.0000    0.0000    0.0000 C   0  0  0  0  0  0  0  0  0  0  0  0
    0.0000    0.0000    0.0000 C   0  0  0  0  0  0  0  0  0  0  0  0
    0.0000    0.0000    0.0000 C   0  0  0  0  0  0  0  0  0  0  0  0
    0.0000    0.0000    0.0000 C   0  0  0  0  0  0  0  0  0  0  0  0
    0.0000    0.0000    0.0000 C   0  0  0  0  0  0  0  0  0  0  0  0
    0.0000    0.0000    0.0000 C   0  0  0  0  0  0  0  0  0  0  0  0
    0.0000    0.0000    0.0000 C   0  0  0  0  0  0  0  0  0  0  0  0
    0.0000    0.0000    0.0000 O   0  0  0  0  0  0  0  0  0  0  0  0
    0.0000    0.0000    0.0000 C   0  0  0  0  0  0  0  0  0  0  0  0
    0.0000    0.0000    0.0000 C   0  0  0  0  0  0  0  0  0  0  0  0
    0.0000    0.0000    0.0000 C   0  0  0  0  0  0  0  0  0  0  0  0
    0.0000    0.0000    0.0000 C   0  0  0  0  0  0  0  0  0  0  0  0
    0.0000    0.0000    0.0000 C   0  0  0  0  0  0  0  0  0  0  0  0
    0.0000    0.0000    0.0000 C   0  0  0  0  0  0  0  0  0  0  0  0
    0.0000    0.0000    0.0000 C   0  0  0  0  0  0  0  0  0  0  0  0
    0.0000    0.0000    0.0000 N   0  0  0  0  0  0  0  0  0  0  0  0
    0.0000    0.0000    0.0000 C   0  0  0  0  0  0  0  0  0  0  0  0
    0.0000    0.0000    0.0000 C   0  0  0  0  0  0  0  0  0  0  0  0
    0.0000    0.0000    0.0000 C   0  0  0  0  0  0  0  0  0  0  0  0
    0.0000    0.0000    0.0000 C   0  0  0  0  0  0  0  0  0  0  0  0
    0.0000    0.0000    0.0000 C   0  0  0  0  0  0  0  0  0  0  0  0
    0.0000    0.0000    0.0000 C   0  0  0  0  0  0  0  0  0  0  0  0
    0.0000    0.0000    0.0000 C   0  0  0  0  0  0  0  0  0  0  0  0
    0.0000    0.0000    0.0000 C   0  0  0  0  0  0  0  0  0  0  0  0
    0.0000    0.0000    0.0000 O   0  0  0  0  0  0  0  0  0  0  0  0
    0.0000    0.0000    0.0000 N   0  0  0  0  0  0  0  0  0  0  0  0
  1  2  1  0
  2  3  2  0
  3  4  1  0
  4  5  2  0
  5  6  1  0
  6  7  2  0
  7  8  1  0
  8  9  1  0
  9 10  1  0
 10 11  1  0
 11 12  1  0
 12 13  1  0
 13 14  1  0
 14 15  1  0
 14 16  1  0
 16 17  1  0
 17 18  1  0
 18 19  2  0
 19 20  1  0
 20 21  2  0
 21 22  1  0
 22 23  2  0
  4 24  1  0
 24 25  2  0
 24 26  1  0
  7  2  1  0
 15  9  1  0
 16 11  1  0
 23 18  1  0
M  END
>  <pIC50>  (591) 
6.38

>  <ChEMBL_ID>  (591) 
CHEMBL1224215

>  <document_journal>  (591) 
Bioorg. Med. Chem. Lett.

>  <bao_endpoint>  (591) 
BAO_0000190

>  <potential_duplicate>  (591) 
False

>  <uo_units>  (591) 
UO_0000065

>  <canonical_smiles>  (591) 
Cc1cc(ccc1O[C@H]2C[C@H]3CC[C@@H](C2)N3Cc4ccccc4)C(=O)N

>  <parent_molecule_chembl_id>  (591) 
CHEMBL1224215

>  <assay_type>  (591) 
F

>  <src_id>  (591) 
1

>  <ligand_efficiency>  (591) 
None

>  <standard_flag>  (591) 
True

>  <molecule_chembl_id>  (591) 
CHEMBL1224215

>  <target_organism>  (591) 
Homo sapiens

>  <standard_units>  (591) 
nM

>  <record_id>  (591) 
937989

>  <document_chembl_id>  (591) 
CHEMBL1221377

>  <bao_format>  (591) 
BAO_0000219

>  <data_validity_description>  (591) 
None

>  <activity_id>  (591) 
3412305

>  <standard_type>  (591) 
IC50

>  <target_chembl_id>  (591) 
CHEMBL233

>  <data_validity_comment>  (591) 
None

>  <published_value>  (591) 
419

>  <document_year>  (591) 
2010

>  <target_pref_name>  (591) 
Mu opioid receptor

>  <assay_chembl_id>  (591) 
CHEMBL1225862

>  <standard_relation>  (591) 
=

>  <assay_description>  (591) 
Antagonist activity at human mu opioid receptor expressed in HEK cells assessed as inhibition of DAMGO-induced [35S]GTPgammaS binding

>  <published_relation>  (591) 
=

>  <standard_value>  (591) 
419

>  <qudt_units>  (591) 
http://www.openphacts.org/units/Nanomolar

>  <target_tax_id>  (591) 
9606

>  <bao_label>  (591) 
cell-based format

>  <published_units>  (591) 
nM

>  <pchembl_value>  (591) 
6.38

>  <published_type>  (591) 
IC50

>  <activity_comment>  (591) 
None

$$$$

     RDKit          

 26 29  0  0  0  0  0  0  0  0999 V2000
    0.0000    0.0000    0.0000 N   0  0  0  0  0  0  0  0  0  0  0  0
    0.0000    0.0000    0.0000 C   0  0  0  0  0  0  0  0  0  0  0  0
    0.0000    0.0000    0.0000 O   0  0  0  0  0  0  0  0  0  0  0  0
    0.0000    0.0000    0.0000 C   0  0  0  0  0  0  0  0  0  0  0  0
    0.0000    0.0000    0.0000 C   0  0  0  0  0  0  0  0  0  0  0  0
    0.0000    0.0000    0.0000 C   0  0  0  0  0  0  0  0  0  0  0  0
    0.0000    0.0000    0.0000 C   0  0  0  0  0  0  0  0  0  0  0  0
    0.0000    0.0000    0.0000 O   0  0  0  0  0  0  0  0  0  0  0  0
    0.0000    0.0000    0.0000 C   0  0  0  0  0  0  0  0  0  0  0  0
    0.0000    0.0000    0.0000 C   0  0  0  0  0  0  0  0  0  0  0  0
    0.0000    0.0000    0.0000 C   0  0  0  0  0  0  0  0  0  0  0  0
    0.0000    0.0000    0.0000 C   0  0  0  0  0  0  0  0  0  0  0  0
    0.0000    0.0000    0.0000 C   0  0  0  0  0  0  0  0  0  0  0  0
    0.0000    0.0000    0.0000 C   0  0  0  0  0  0  0  0  0  0  0  0
    0.0000    0.0000    0.0000 C   0  0  0  0  0  0  0  0  0  0  0  0
    0.0000    0.0000    0.0000 N   0  0  0  0  0  0  0  0  0  0  0  0
    0.0000    0.0000    0.0000 C   0  0  0  0  0  0  0  0  0  0  0  0
    0.0000    0.0000    0.0000 C   0  0  0  0  0  0  0  0  0  0  0  0
    0.0000    0.0000    0.0000 C   0  0  0  0  0  0  0  0  0  0  0  0
    0.0000    0.0000    0.0000 C   0  0  0  0  0  0  0  0  0  0  0  0
    0.0000    0.0000    0.0000 C   0  0  0  0  0  0  0  0  0  0  0  0
    0.0000    0.0000    0.0000 C   0  0  0  0  0  0  0  0  0  0  0  0
    0.0000    0.0000    0.0000 C   0  0  0  0  0  0  0  0  0  0  0  0
    0.0000    0.0000    0.0000 C   0  0  0  0  0  0  0  0  0  0  0  0
    0.0000    0.0000    0.0000 F   0  0  0  0  0  0  0  0  0  0  0  0
    0.0000    0.0000    0.0000 C   0  0  0  0  0  0  0  0  0  0  0  0
  1  2  1  0
  2  3  2  0
  2  4  1  0
  4  5  2  0
  5  6  1  0
  6  7  2  0
  7  8  1  0
  8  9  1  0
  9 10  1  0
 10 11  1  0
 11 12  1  0
 12 13  1  0
 13 14  1  0
 14 15  1  0
 14 16  1  0
 16 17  1  0
 17 18  1  0
 18 19  2  0
 19 20  1  0
 20 21  2  0
 21 22  1  0
 22 23  2  0
  7 24  1  0
 24 25  1  0
 24 26  2  0
 26  4  1  0
 15  9  1  0
 16 11  1  0
 23 18  1  0
M  END
>  <pIC50>  (592) 
5.09

>  <ChEMBL_ID>  (592) 
CHEMBL1224216

>  <document_journal>  (592) 
Bioorg. Med. Chem. Lett.

>  <bao_endpoint>  (592) 
BAO_0000190

>  <potential_duplicate>  (592) 
False

>  <uo_units>  (592) 
UO_0000065

>  <canonical_smiles>  (592) 
NC(=O)c1ccc(O[C@H]2C[C@H]3CC[C@@H](C2)N3Cc4ccccc4)c(F)c1

>  <parent_molecule_chembl_id>  (592) 
CHEMBL1224216

>  <assay_type>  (592) 
F

>  <src_id>  (592) 
1

>  <ligand_efficiency>  (592) 
None

>  <standard_flag>  (592) 
True

>  <molecule_chembl_id>  (592) 
CHEMBL1224216

>  <target_organism>  (592) 
Homo sapiens

>  <standard_units>  (592) 
nM

>  <record_id>  (592) 
937990

>  <document_chembl_id>  (592) 
CHEMBL1221377

>  <bao_format>  (592) 
BAO_0000219

>  <data_validity_description>  (592) 
None

>  <activity_id>  (592) 
3412306

>  <standard_type>  (592) 
IC50

>  <target_chembl_id>  (592) 
CHEMBL233

>  <data_validity_comment>  (592) 
None

>  <published_value>  (592) 
8188

>  <document_year>  (592) 
2010

>  <target_pref_name>  (592) 
Mu opioid receptor

>  <assay_chembl_id>  (592) 
CHEMBL1225862

>  <standard_relation>  (592) 
=

>  <assay_description>  (592) 
Antagonist activity at human mu opioid receptor expressed in HEK cells assessed as inhibition of DAMGO-induced [35S]GTPgammaS binding

>  <published_relation>  (592) 
=

>  <standard_value>  (592) 
8188

>  <qudt_units>  (592) 
http://www.openphacts.org/units/Nanomolar

>  <target_tax_id>  (592) 
9606

>  <bao_label>  (592) 
cell-based format

>  <published_units>  (592) 
nM

>  <pchembl_value>  (592) 
5.09

>  <published_type>  (592) 
IC50

>  <activity_comment>  (592) 
None

$$$$

     RDKit          

 23 26  0  0  0  0  0  0  0  0999 V2000
    0.0000    0.0000    0.0000 O   0  0  0  0  0  0  0  0  0  0  0  0
    0.0000    0.0000    0.0000 C   0  0  0  0  0  0  0  0  0  0  0  0
    0.0000    0.0000    0.0000 C   0  0  0  0  0  0  0  0  0  0  0  0
    0.0000    0.0000    0.0000 C   0  0  0  0  0  0  0  0  0  0  0  0
    0.0000    0.0000    0.0000 C   0  0  0  0  0  0  0  0  0  0  0  0
    0.0000    0.0000    0.0000 C   0  0  0  0  0  0  0  0  0  0  0  0
    0.0000    0.0000    0.0000 O   0  0  0  0  0  0  0  0  0  0  0  0
    0.0000    0.0000    0.0000 C   0  0  0  0  0  0  0  0  0  0  0  0
    0.0000    0.0000    0.0000 C   0  0  0  0  0  0  0  0  0  0  0  0
    0.0000    0.0000    0.0000 C   0  0  0  0  0  0  0  0  0  0  0  0
    0.0000    0.0000    0.0000 C   0  0  0  0  0  0  0  0  0  0  0  0
    0.0000    0.0000    0.0000 C   0  0  0  0  0  0  0  0  0  0  0  0
    0.0000    0.0000    0.0000 C   0  0  0  0  0  0  0  0  0  0  0  0
    0.0000    0.0000    0.0000 C   0  0  0  0  0  0  0  0  0  0  0  0
    0.0000    0.0000    0.0000 N   0  0  0  0  0  0  0  0  0  0  0  0
    0.0000    0.0000    0.0000 C   0  0  0  0  0  0  0  0  0  0  0  0
    0.0000    0.0000    0.0000 C   0  0  0  0  0  0  0  0  0  0  0  0
    0.0000    0.0000    0.0000 C   0  0  0  0  0  0  0  0  0  0  0  0
    0.0000    0.0000    0.0000 C   0  0  0  0  0  0  0  0  0  0  0  0
    0.0000    0.0000    0.0000 C   0  0  0  0  0  0  0  0  0  0  0  0
    0.0000    0.0000    0.0000 C   0  0  0  0  0  0  0  0  0  0  0  0
    0.0000    0.0000    0.0000 C   0  0  0  0  0  0  0  0  0  0  0  0
    0.0000    0.0000    0.0000 C   0  0  0  0  0  0  0  0  0  0  0  0
  1  2  1  0
  2  3  2  0
  3  4  1  0
  4  5  2  0
  5  6  1  0
  6  7  1  0
  7  8  1  0
  8  9  1  0
  9 10  1  0
 10 11  1  0
 11 12  1  0
 12 13  1  0
 13 14  1  0
 13 15  1  0
 15 16  1  0
 16 17  1  0
 17 18  2  0
 18 19  1  0
 19 20  2  0
 20 21  1  0
 21 22  2  0
  6 23  2  0
 23  2  1  0
 14  8  1  0
 15 10  1  0
 22 17  1  0
M  END
>  <pIC50>  (593) 
4.65

>  <ChEMBL_ID>  (593) 
CHEMBL1224288

>  <document_journal>  (593) 
Bioorg. Med. Chem. Lett.

>  <bao_endpoint>  (593) 
BAO_0000190

>  <potential_duplicate>  (593) 
False

>  <uo_units>  (593) 
UO_0000065

>  <canonical_smiles>  (593) 
Oc1cccc(O[C@H]2C[C@H]3CC[C@@H](C2)N3Cc4ccccc4)c1

>  <parent_molecule_chembl_id>  (593) 
CHEMBL1224288

>  <assay_type>  (593) 
F

>  <src_id>  (593) 
1

>  <ligand_efficiency>  (593) 
None

>  <standard_flag>  (593) 
True

>  <molecule_chembl_id>  (593) 
CHEMBL1224288

>  <target_organism>  (593) 
Homo sapiens

>  <standard_units>  (593) 
nM

>  <record_id>  (593) 
938077

>  <document_chembl_id>  (593) 
CHEMBL1221377

>  <bao_format>  (593) 
BAO_0000219

>  <data_validity_description>  (593) 
None

>  <activity_id>  (593) 
3412311

>  <standard_type>  (593) 
IC50

>  <target_chembl_id>  (593) 
CHEMBL233

>  <data_validity_comment>  (593) 
None

>  <published_value>  (593) 
22230

>  <document_year>  (593) 
2010

>  <target_pref_name>  (593) 
Mu opioid receptor

>  <assay_chembl_id>  (593) 
CHEMBL1225862

>  <standard_relation>  (593) 
=

>  <assay_description>  (593) 
Antagonist activity at human mu opioid receptor expressed in HEK cells assessed as inhibition of DAMGO-induced [35S]GTPgammaS binding

>  <published_relation>  (593) 
=

>  <standard_value>  (593) 
22230

>  <qudt_units>  (593) 
http://www.openphacts.org/units/Nanomolar

>  <target_tax_id>  (593) 
9606

>  <bao_label>  (593) 
cell-based format

>  <published_units>  (593) 
nM

>  <pchembl_value>  (593) 
4.65

>  <published_type>  (593) 
IC50

>  <activity_comment>  (593) 
None

$$$$

     RDKit          

 27 30  0  0  0  0  0  0  0  0999 V2000
    0.0000    0.0000    0.0000 C   0  0  0  0  0  0  0  0  0  0  0  0
    0.0000    0.0000    0.0000 C   0  0  0  0  0  0  0  0  0  0  0  0
    0.0000    0.0000    0.0000 C   0  0  0  0  0  0  0  0  0  0  0  0
    0.0000    0.0000    0.0000 N   0  0  0  0  0  0  0  0  0  0  0  0
    0.0000    0.0000    0.0000 C   0  0  0  0  0  0  0  0  0  0  0  0
    0.0000    0.0000    0.0000 C   0  0  0  0  0  0  0  0  0  0  0  0
    0.0000    0.0000    0.0000 C   0  0  0  0  0  0  0  0  0  0  0  0
    0.0000    0.0000    0.0000 O   0  0  0  0  0  0  0  0  0  0  0  0
    0.0000    0.0000    0.0000 N   0  0  0  0  0  0  0  0  0  0  0  0
    0.0000    0.0000    0.0000 C   0  0  0  0  0  0  0  0  0  0  0  0
    0.0000    0.0000    0.0000 C   0  0  0  0  0  0  0  0  0  0  0  0
    0.0000    0.0000    0.0000 C   0  0  0  0  0  0  0  0  0  0  0  0
    0.0000    0.0000    0.0000 C   0  0  0  0  0  0  0  0  0  0  0  0
    0.0000    0.0000    0.0000 C   0  0  0  0  0  0  0  0  0  0  0  0
    0.0000    0.0000    0.0000 C   0  0  0  0  0  0  0  0  0  0  0  0
    0.0000    0.0000    0.0000 C   0  0  0  0  0  0  0  0  0  0  0  0
    0.0000    0.0000    0.0000 C   0  0  0  0  0  0  0  0  0  0  0  0
    0.0000    0.0000    0.0000 C   0  0  0  0  0  0  0  0  0  0  0  0
    0.0000    0.0000    0.0000 C   0  0  0  0  0  0  0  0  0  0  0  0
    0.0000    0.0000    0.0000 C   0  0  0  0  0  0  0  0  0  0  0  0
    0.0000    0.0000    0.0000 C   0  0  0  0  0  0  0  0  0  0  0  0
    0.0000    0.0000    0.0000 O   0  0  0  0  0  0  0  0  0  0  0  0
    0.0000    0.0000    0.0000 C   0  0  0  0  0  0  0  0  0  0  0  0
    0.0000    0.0000    0.0000 C   0  0  0  0  0  0  0  0  0  0  0  0
    0.0000    0.0000    0.0000 C   0  0  0  0  0  0  0  0  0  0  0  0
    0.0000    0.0000    0.0000 C   0  0  0  0  0  0  0  0  0  0  0  0
    0.0000    0.0000    0.0000 C   0  0  0  0  0  0  0  0  0  0  0  0
  1  2  1  0
  2  3  1  0
  3  4  1  0
  4  5  1  0
  5  6  1  0
  6  7  1  0
  7  8  2  0
  7  9  1  0
  9 10  1  0
 10 11  2  0
 11 12  1  0
 12 13  2  0
 13 14  1  0
 14 15  2  0
  4 16  1  0
 16 17  1  0
 17 18  1  0
 18 19  2  0
 19 20  1  0
 20 21  2  0
 21 22  1  0
 21 23  1  0
 23 24  2  0
 24 25  1  0
 25 26  1  0
 25 27  1  0
 25  2  1  0
 15 10  1  0
 27 16  1  0
 24 18  1  0
M  END
>  <pIC50>  (594) 
8.32

>  <ChEMBL_ID>  (594) 
CHEMBL1254685

>  <document_journal>  (594) 
Bioorg. Med. Chem.

>  <bao_endpoint>  (594) 
BAO_0000190

>  <potential_duplicate>  (594) 
False

>  <uo_units>  (594) 
UO_0000065

>  <canonical_smiles>  (594) 
C[C@H]1CN(CCC(=O)Nc2ccccc2)[C@@H]3Cc4ccc(O)cc4[C@]1(C)C3

>  <parent_molecule_chembl_id>  (594) 
CHEMBL1254685

>  <assay_type>  (594) 
F

>  <src_id>  (594) 
1

>  <ligand_efficiency>  (594) 
None

>  <standard_flag>  (594) 
True

>  <molecule_chembl_id>  (594) 
CHEMBL1254685

>  <target_organism>  (594) 
Homo sapiens

>  <standard_units>  (594) 
nM

>  <record_id>  (594) 
957082

>  <document_chembl_id>  (594) 
CHEMBL1250436

>  <bao_format>  (594) 
BAO_0000219

>  <data_validity_description>  (594) 
None

>  <activity_id>  (594) 
3471995

>  <standard_type>  (594) 
IC50

>  <target_chembl_id>  (594) 
CHEMBL233

>  <data_validity_comment>  (594) 
None

>  <published_value>  (594) 
4.8

>  <document_year>  (594) 
2010

>  <target_pref_name>  (594) 
Mu opioid receptor

>  <assay_chembl_id>  (594) 
CHEMBL1252310

>  <standard_relation>  (594) 
=

>  <assay_description>  (594) 
Agonist activity at mu opioid expressed in HEK293 cells assessed as inhibition of forskolin-stimulated cAMP accumulation

>  <published_relation>  (594) 
=

>  <standard_value>  (594) 
4.8

>  <qudt_units>  (594) 
http://www.openphacts.org/units/Nanomolar

>  <target_tax_id>  (594) 
9606

>  <bao_label>  (594) 
cell-based format

>  <published_units>  (594) 
nM

>  <pchembl_value>  (594) 
8.32

>  <published_type>  (594) 
IC50

>  <activity_comment>  (594) 
None

$$$$

     RDKit          

 33 36  0  0  0  0  0  0  0  0999 V2000
    0.0000    0.0000    0.0000 C   0  0  0  0  0  0  0  0  0  0  0  0
    0.0000    0.0000    0.0000 C   0  0  0  0  0  0  0  0  0  0  0  0
    0.0000    0.0000    0.0000 C   0  0  0  0  0  0  0  0  0  0  0  0
    0.0000    0.0000    0.0000 C   0  0  0  0  0  0  0  0  0  0  0  0
    0.0000    0.0000    0.0000 C   0  0  0  0  0  0  0  0  0  0  0  0
    0.0000    0.0000    0.0000 N   0  0  0  0  0  0  0  0  0  0  0  0
    0.0000    0.0000    0.0000 C   0  0  0  0  0  0  0  0  0  0  0  0
    0.0000    0.0000    0.0000 C   0  0  0  0  0  0  0  0  0  0  0  0
    0.0000    0.0000    0.0000 C   0  0  0  0  0  0  0  0  0  0  0  0
    0.0000    0.0000    0.0000 C   0  0  0  0  0  0  0  0  0  0  0  0
    0.0000    0.0000    0.0000 C   0  0  0  0  0  0  0  0  0  0  0  0
    0.0000    0.0000    0.0000 C   0  0  0  0  0  0  0  0  0  0  0  0
    0.0000    0.0000    0.0000 C   0  0  0  0  0  0  0  0  0  0  0  0
    0.0000    0.0000    0.0000 C   0  0  0  0  0  0  0  0  0  0  0  0
    0.0000    0.0000    0.0000 C   0  0  0  0  0  0  0  0  0  0  0  0
    0.0000    0.0000    0.0000 C   0  0  0  0  0  0  0  0  0  0  0  0
    0.0000    0.0000    0.0000 C   0  0  0  0  0  0  0  0  0  0  0  0
    0.0000    0.0000    0.0000 C   0  0  0  0  0  0  0  0  0  0  0  0
    0.0000    0.0000    0.0000 O   0  0  0  0  0  0  0  0  0  0  0  0
    0.0000    0.0000    0.0000 C   0  0  0  0  0  0  0  0  0  0  0  0
    0.0000    0.0000    0.0000 N   0  0  0  0  0  0  0  0  0  0  0  0
    0.0000    0.0000    0.0000 C   0  0  0  0  0  0  0  0  0  0  0  0
    0.0000    0.0000    0.0000 O   0  0  0  0  0  0  0  0  0  0  0  0
    0.0000    0.0000    0.0000 C   0  0  0  0  0  0  0  0  0  0  0  0
    0.0000    0.0000    0.0000 C   0  0  0  0  0  0  0  0  0  0  0  0
    0.0000    0.0000    0.0000 C   0  0  0  0  0  0  0  0  0  0  0  0
    0.0000    0.0000    0.0000 C   0  0  0  0  0  0  0  0  0  0  0  0
    0.0000    0.0000    0.0000 C   0  0  0  0  0  0  0  0  0  0  0  0
    0.0000    0.0000    0.0000 C   0  0  0  0  0  0  0  0  0  0  0  0
    0.0000    0.0000    0.0000 C   0  0  0  0  0  0  0  0  0  0  0  0
    0.0000    0.0000    0.0000 C   0  0  0  0  0  0  0  0  0  0  0  0
    0.0000    0.0000    0.0000 C   0  0  0  0  0  0  0  0  0  0  0  0
    0.0000    0.0000    0.0000 N   0  0  0  0  0  0  0  0  0  0  0  0
  1  2  1  0
  2  3  1  0
  2  4  1  0
  4  5  1  0
  5  6  1  0
  6  7  1  0
  7  8  1  0
  8  9  1  0
  9 10  1  0
  9 11  1  0
 11 12  1  0
 11 13  1  0
  9 14  1  0
 14 15  2  0
 15 16  1  0
 16 17  2  0
 17 18  1  0
 18 19  1  0
 18 20  2  0
  4 21  1  0
 21 22  1  0
 22 23  2  0
 22 24  1  0
 24 25  1  0
 25 26  1  0
 26 27  2  0
 27 28  1  0
 28 29  2  0
 29 30  1  0
 30 31  2  0
 31 32  1  0
 32 33  1  0
 13  6  1  0
 20 14  1  0
 33 24  1  0
 31 26  1  0
M  END
>  <pIC50>  (595) 
7.39

>  <ChEMBL_ID>  (595) 
CHEMBL10872

>  <document_journal>  (595) 
Bioorg. Med. Chem. Lett.

>  <bao_endpoint>  (595) 
BAO_0000190

>  <potential_duplicate>  (595) 
False

>  <uo_units>  (595) 
UO_0000065

>  <canonical_smiles>  (595) 
CC(C)[C@@H](CN1CC[C@](C)([C@@H](C)C1)c2cccc(O)c2)NC(=O)[C@H]3Cc4ccccc4CN3

>  <parent_molecule_chembl_id>  (595) 
CHEMBL10872

>  <assay_type>  (595) 
F

>  <src_id>  (595) 
1

>  <ligand_efficiency>  (595) 
None

>  <standard_flag>  (595) 
True

>  <molecule_chembl_id>  (595) 
CHEMBL10872

>  <target_organism>  (595) 
Homo sapiens

>  <standard_units>  (595) 
nM

>  <record_id>  (595) 
962220

>  <document_chembl_id>  (595) 
CHEMBL1255514

>  <bao_format>  (595) 
BAO_0000019

>  <data_validity_description>  (595) 
None

>  <activity_id>  (595) 
3497798

>  <standard_type>  (595) 
IC50

>  <target_chembl_id>  (595) 
CHEMBL233

>  <data_validity_comment>  (595) 
None

>  <published_value>  (595) 
41

>  <document_year>  (595) 
2010

>  <target_pref_name>  (595) 
Mu opioid receptor

>  <assay_chembl_id>  (595) 
CHEMBL1259357

>  <standard_relation>  (595) 
=

>  <assay_description>  (595) 
Antagonist activity at human mu opioid receptor assessed as inhibition of DAMGO-stimulated [35S]GTPgammaS binding

>  <published_relation>  (595) 
=

>  <standard_value>  (595) 
41

>  <qudt_units>  (595) 
http://www.openphacts.org/units/Nanomolar

>  <target_tax_id>  (595) 
9606

>  <bao_label>  (595) 
assay format

>  <published_units>  (595) 
nM

>  <pchembl_value>  (595) 
7.39

>  <published_type>  (595) 
IC50

>  <activity_comment>  (595) 
None

$$$$

     RDKit          

 25 28  0  0  0  0  0  0  0  0999 V2000
    0.0000    0.0000    0.0000 N   0  0  0  0  0  0  0  0  0  0  0  0
    0.0000    0.0000    0.0000 C   0  0  0  0  0  0  0  0  0  0  0  0
    0.0000    0.0000    0.0000 O   0  0  0  0  0  0  0  0  0  0  0  0
    0.0000    0.0000    0.0000 C   0  0  0  0  0  0  0  0  0  0  0  0
    0.0000    0.0000    0.0000 C   0  0  0  0  0  0  0  0  0  0  0  0
    0.0000    0.0000    0.0000 C   0  0  0  0  0  0  0  0  0  0  0  0
    0.0000    0.0000    0.0000 C   0  0  0  0  0  0  0  0  0  0  0  0
    0.0000    0.0000    0.0000 C   0  0  0  0  0  0  0  0  0  0  0  0
    0.0000    0.0000    0.0000 O   0  0  0  0  0  0  0  0  0  0  0  0
    0.0000    0.0000    0.0000 C   0  0  0  0  0  0  0  0  0  0  0  0
    0.0000    0.0000    0.0000 C   0  0  0  0  0  0  0  0  0  0  0  0
    0.0000    0.0000    0.0000 C   0  0  0  0  0  0  0  0  0  0  0  0
    0.0000    0.0000    0.0000 C   0  0  0  0  0  0  0  0  0  0  0  0
    0.0000    0.0000    0.0000 C   0  0  0  0  0  0  0  0  0  0  0  0
    0.0000    0.0000    0.0000 C   0  0  0  0  0  0  0  0  0  0  0  0
    0.0000    0.0000    0.0000 C   0  0  0  0  0  0  0  0  0  0  0  0
    0.0000    0.0000    0.0000 N   0  0  0  0  0  0  0  0  0  0  0  0
    0.0000    0.0000    0.0000 C   0  0  0  0  0  0  0  0  0  0  0  0
    0.0000    0.0000    0.0000 C   0  0  0  0  0  0  0  0  0  0  0  0
    0.0000    0.0000    0.0000 C   0  0  0  0  0  0  0  0  0  0  0  0
    0.0000    0.0000    0.0000 C   0  0  0  0  0  0  0  0  0  0  0  0
    0.0000    0.0000    0.0000 C   0  0  0  0  0  0  0  0  0  0  0  0
    0.0000    0.0000    0.0000 C   0  0  0  0  0  0  0  0  0  0  0  0
    0.0000    0.0000    0.0000 C   0  0  0  0  0  0  0  0  0  0  0  0
    0.0000    0.0000    0.0000 C   0  0  0  0  0  0  0  0  0  0  0  0
  1  2  1  0
  2  3  2  0
  2  4  1  0
  4  5  2  0
  5  6  1  0
  6  7  2  0
  7  8  1  0
  8  9  1  0
  9 10  1  0
 10 11  1  0
 11 12  1  0
 12 13  1  0
 13 14  1  0
 14 15  1  0
 15 16  1  0
 15 17  1  0
 17 18  1  0
 18 19  1  0
 19 20  2  0
 20 21  1  0
 21 22  2  0
 22 23  1  0
 23 24  2  0
  8 25  2  0
 25  4  1  0
 16 10  1  0
 17 12  1  0
 24 19  1  0
M  END
>  <pIC50>  (596) 
4.97

>  <ChEMBL_ID>  (596) 
CHEMBL1223951

>  <document_journal>  (596) 
Bioorg. Med. Chem. Lett.

>  <bao_endpoint>  (596) 
BAO_0000190

>  <potential_duplicate>  (596) 
False

>  <uo_units>  (596) 
UO_0000065

>  <canonical_smiles>  (596) 
NC(=O)c1cccc(O[C@@H]2C[C@H]3CC[C@@H](C2)N3Cc4ccccc4)c1

>  <parent_molecule_chembl_id>  (596) 
CHEMBL1223951

>  <assay_type>  (596) 
F

>  <src_id>  (596) 
1

>  <ligand_efficiency>  (596) 
None

>  <standard_flag>  (596) 
True

>  <molecule_chembl_id>  (596) 
CHEMBL1223951

>  <target_organism>  (596) 
Homo sapiens

>  <standard_units>  (596) 
nM

>  <record_id>  (596) 
962347

>  <document_chembl_id>  (596) 
CHEMBL1255514

>  <bao_format>  (596) 
BAO_0000019

>  <data_validity_description>  (596) 
None

>  <activity_id>  (596) 
3497800

>  <standard_type>  (596) 
IC50

>  <target_chembl_id>  (596) 
CHEMBL233

>  <data_validity_comment>  (596) 
None

>  <published_value>  (596) 
10681

>  <document_year>  (596) 
2010

>  <target_pref_name>  (596) 
Mu opioid receptor

>  <assay_chembl_id>  (596) 
CHEMBL1259357

>  <standard_relation>  (596) 
=

>  <assay_description>  (596) 
Antagonist activity at human mu opioid receptor assessed as inhibition of DAMGO-stimulated [35S]GTPgammaS binding

>  <published_relation>  (596) 
=

>  <standard_value>  (596) 
10681

>  <qudt_units>  (596) 
http://www.openphacts.org/units/Nanomolar

>  <target_tax_id>  (596) 
9606

>  <bao_label>  (596) 
assay format

>  <published_units>  (596) 
nM

>  <pchembl_value>  (596) 
4.97

>  <published_type>  (596) 
IC50

>  <activity_comment>  (596) 
None

$$$$

     RDKit          

 24 27  0  0  0  0  0  0  0  0999 V2000
    0.0000    0.0000    0.0000 N   0  0  0  0  0  0  0  0  0  0  0  0
    0.0000    0.0000    0.0000 C   0  0  0  0  0  0  0  0  0  0  0  0
    0.0000    0.0000    0.0000 O   0  0  0  0  0  0  0  0  0  0  0  0
    0.0000    0.0000    0.0000 C   0  0  0  0  0  0  0  0  0  0  0  0
    0.0000    0.0000    0.0000 C   0  0  0  0  0  0  0  0  0  0  0  0
    0.0000    0.0000    0.0000 C   0  0  0  0  0  0  0  0  0  0  0  0
    0.0000    0.0000    0.0000 C   0  0  0  0  0  0  0  0  0  0  0  0
    0.0000    0.0000    0.0000 C   0  0  0  0  0  0  0  0  0  0  0  0
    0.0000    0.0000    0.0000 O   0  0  0  0  0  0  0  0  0  0  0  0
    0.0000    0.0000    0.0000 C   0  0  0  0  0  0  0  0  0  0  0  0
    0.0000    0.0000    0.0000 C   0  0  0  0  0  0  0  0  0  0  0  0
    0.0000    0.0000    0.0000 C   0  0  0  0  0  0  0  0  0  0  0  0
    0.0000    0.0000    0.0000 C   0  0  0  0  0  0  0  0  0  0  0  0
    0.0000    0.0000    0.0000 C   0  0  0  0  0  0  0  0  0  0  0  0
    0.0000    0.0000    0.0000 C   0  0  0  0  0  0  0  0  0  0  0  0
    0.0000    0.0000    0.0000 C   0  0  0  0  0  0  0  0  0  0  0  0
    0.0000    0.0000    0.0000 N   0  0  0  0  0  0  0  0  0  0  0  0
    0.0000    0.0000    0.0000 C   0  0  0  0  0  0  0  0  0  0  0  0
    0.0000    0.0000    0.0000 C   0  0  0  0  0  0  0  0  0  0  0  0
    0.0000    0.0000    0.0000 C   0  0  0  0  0  0  0  0  0  0  0  0
    0.0000    0.0000    0.0000 C   0  0  0  0  0  0  0  0  0  0  0  0
    0.0000    0.0000    0.0000 C   0  0  0  0  0  0  0  0  0  0  0  0
    0.0000    0.0000    0.0000 S   0  0  0  0  0  0  0  0  0  0  0  0
    0.0000    0.0000    0.0000 C   0  0  0  0  0  0  0  0  0  0  0  0
  1  2  1  0
  2  3  2  0
  2  4  1  0
  4  5  2  0
  5  6  1  0
  6  7  2  0
  7  8  1  0
  8  9  1  0
  9 10  1  0
 10 11  1  0
 11 12  1  0
 12 13  1  0
 13 14  1  0
 14 15  1  0
 15 16  1  0
 15 17  1  0
 17 18  1  0
 18 19  1  0
 19 20  2  0
 20 21  1  0
 21 22  2  0
 22 23  1  0
  8 24  2  0
 24  4  1  0
 16 10  1  0
 17 12  1  0
 23 19  1  0
M  END
>  <pIC50>  (597) 
5.03

>  <ChEMBL_ID>  (597) 
CHEMBL1257577

>  <document_journal>  (597) 
Bioorg. Med. Chem. Lett.

>  <bao_endpoint>  (597) 
BAO_0000190

>  <potential_duplicate>  (597) 
False

>  <uo_units>  (597) 
UO_0000065

>  <canonical_smiles>  (597) 
NC(=O)c1cccc(O[C@@H]2C[C@H]3CC[C@@H](C2)N3Cc4cccs4)c1

>  <parent_molecule_chembl_id>  (597) 
CHEMBL1257577

>  <assay_type>  (597) 
F

>  <src_id>  (597) 
1

>  <ligand_efficiency>  (597) 
None

>  <standard_flag>  (597) 
True

>  <molecule_chembl_id>  (597) 
CHEMBL1257577

>  <target_organism>  (597) 
Homo sapiens

>  <standard_units>  (597) 
nM

>  <record_id>  (597) 
962476

>  <document_chembl_id>  (597) 
CHEMBL1255514

>  <bao_format>  (597) 
BAO_0000019

>  <data_validity_description>  (597) 
None

>  <activity_id>  (597) 
3497801

>  <standard_type>  (597) 
IC50

>  <target_chembl_id>  (597) 
CHEMBL233

>  <data_validity_comment>  (597) 
None

>  <published_value>  (597) 
9359

>  <document_year>  (597) 
2010

>  <target_pref_name>  (597) 
Mu opioid receptor

>  <assay_chembl_id>  (597) 
CHEMBL1259357

>  <standard_relation>  (597) 
=

>  <assay_description>  (597) 
Antagonist activity at human mu opioid receptor assessed as inhibition of DAMGO-stimulated [35S]GTPgammaS binding

>  <published_relation>  (597) 
=

>  <standard_value>  (597) 
9359

>  <qudt_units>  (597) 
http://www.openphacts.org/units/Nanomolar

>  <target_tax_id>  (597) 
9606

>  <bao_label>  (597) 
assay format

>  <published_units>  (597) 
nM

>  <pchembl_value>  (597) 
5.03

>  <published_type>  (597) 
IC50

>  <activity_comment>  (597) 
None

$$$$

     RDKit          

 25 28  0  0  0  0  0  0  0  0999 V2000
    0.0000    0.0000    0.0000 C   0  0  0  0  0  0  0  0  0  0  0  0
    0.0000    0.0000    0.0000 C   0  0  0  0  0  0  0  0  0  0  0  0
    0.0000    0.0000    0.0000 C   0  0  0  0  0  0  0  0  0  0  0  0
    0.0000    0.0000    0.0000 C   0  0  0  0  0  0  0  0  0  0  0  0
    0.0000    0.0000    0.0000 C   0  0  0  0  0  0  0  0  0  0  0  0
    0.0000    0.0000    0.0000 C   0  0  0  0  0  0  0  0  0  0  0  0
    0.0000    0.0000    0.0000 N   0  0  0  0  0  0  0  0  0  0  0  0
    0.0000    0.0000    0.0000 C   0  0  0  0  0  0  0  0  0  0  0  0
    0.0000    0.0000    0.0000 C   0  0  0  0  0  0  0  0  0  0  0  0
    0.0000    0.0000    0.0000 C   0  0  0  0  0  0  0  0  0  0  0  0
    0.0000    0.0000    0.0000 C   0  0  0  0  0  0  0  0  0  0  0  0
    0.0000    0.0000    0.0000 C   0  0  0  0  0  0  0  0  0  0  0  0
    0.0000    0.0000    0.0000 C   0  0  0  0  0  0  0  0  0  0  0  0
    0.0000    0.0000    0.0000 C   0  0  0  0  0  0  0  0  0  0  0  0
    0.0000    0.0000    0.0000 O   0  0  0  0  0  0  0  0  0  0  0  0
    0.0000    0.0000    0.0000 C   0  0  0  0  0  0  0  0  0  0  0  0
    0.0000    0.0000    0.0000 C   0  0  0  0  0  0  0  0  0  0  0  0
    0.0000    0.0000    0.0000 C   0  0  0  0  0  0  0  0  0  0  0  0
    0.0000    0.0000    0.0000 C   0  0  0  0  0  0  0  0  0  0  0  0
    0.0000    0.0000    0.0000 C   0  0  0  0  0  0  0  0  0  0  0  0
    0.0000    0.0000    0.0000 C   0  0  0  0  0  0  0  0  0  0  0  0
    0.0000    0.0000    0.0000 C   0  0  0  0  0  0  0  0  0  0  0  0
    0.0000    0.0000    0.0000 O   0  0  0  0  0  0  0  0  0  0  0  0
    0.0000    0.0000    0.0000 N   0  0  0  0  0  0  0  0  0  0  0  0
    0.0000    0.0000    0.0000 S   0  0  0  0  0  0  0  0  0  0  0  0
  1  2  1  0
  2  3  2  0
  3  4  1  0
  4  5  2  0
  5  6  1  0
  6  7  1  0
  7  8  1  0
  8  9  1  0
  9 10  1  0
 10 11  1  0
 11 12  1  0
 12 13  1  0
 13 14  1  0
 13 15  1  0
 15 16  1  0
 16 17  2  0
 17 18  1  0
 18 19  2  0
 19 20  1  0
 20 21  2  0
 20 22  1  0
 22 23  2  0
 22 24  1  0
  5 25  1  0
 25  2  1  0
 11  7  1  0
 14  8  1  0
 21 16  1  0
M  END
>  <pIC50>  (598) 
6.14

>  <ChEMBL_ID>  (598) 
CHEMBL1257578

>  <document_journal>  (598) 
Bioorg. Med. Chem. Lett.

>  <bao_endpoint>  (598) 
BAO_0000190

>  <potential_duplicate>  (598) 
False

>  <uo_units>  (598) 
UO_0000065

>  <canonical_smiles>  (598) 
Cc1ccc(CN2[C@@H]3CC[C@H]2C[C@@H](C3)Oc4cccc(c4)C(=O)N)s1

>  <parent_molecule_chembl_id>  (598) 
CHEMBL1257578

>  <assay_type>  (598) 
F

>  <src_id>  (598) 
1

>  <ligand_efficiency>  (598) 
None

>  <standard_flag>  (598) 
True

>  <molecule_chembl_id>  (598) 
CHEMBL1257578

>  <target_organism>  (598) 
Homo sapiens

>  <standard_units>  (598) 
nM

>  <record_id>  (598) 
962477

>  <document_chembl_id>  (598) 
CHEMBL1255514

>  <bao_format>  (598) 
BAO_0000019

>  <data_validity_description>  (598) 
None

>  <activity_id>  (598) 
3497802

>  <standard_type>  (598) 
IC50

>  <target_chembl_id>  (598) 
CHEMBL233

>  <data_validity_comment>  (598) 
None

>  <published_value>  (598) 
722

>  <document_year>  (598) 
2010

>  <target_pref_name>  (598) 
Mu opioid receptor

>  <assay_chembl_id>  (598) 
CHEMBL1259357

>  <standard_relation>  (598) 
=

>  <assay_description>  (598) 
Antagonist activity at human mu opioid receptor assessed as inhibition of DAMGO-stimulated [35S]GTPgammaS binding

>  <published_relation>  (598) 
=

>  <standard_value>  (598) 
722

>  <qudt_units>  (598) 
http://www.openphacts.org/units/Nanomolar

>  <target_tax_id>  (598) 
9606

>  <bao_label>  (598) 
assay format

>  <published_units>  (598) 
nM

>  <pchembl_value>  (598) 
6.14

>  <published_type>  (598) 
IC50

>  <activity_comment>  (598) 
None

$$$$

     RDKit          

 25 28  0  0  0  0  0  0  0  0999 V2000
    0.0000    0.0000    0.0000 C   0  0  0  0  0  0  0  0  0  0  0  0
    0.0000    0.0000    0.0000 C   0  0  0  0  0  0  0  0  0  0  0  0
    0.0000    0.0000    0.0000 O   0  0  0  0  0  0  0  0  0  0  0  0
    0.0000    0.0000    0.0000 C   0  0  0  0  0  0  0  0  0  0  0  0
    0.0000    0.0000    0.0000 C   0  0  0  0  0  0  0  0  0  0  0  0
    0.0000    0.0000    0.0000 N   0  0  0  0  0  0  0  0  0  0  0  0
    0.0000    0.0000    0.0000 C   0  0  0  0  0  0  0  0  0  0  0  0
    0.0000    0.0000    0.0000 C   0  0  0  0  0  0  0  0  0  0  0  0
    0.0000    0.0000    0.0000 C   0  0  0  0  0  0  0  0  0  0  0  0
    0.0000    0.0000    0.0000 C   0  0  0  0  0  0  0  0  0  0  0  0
    0.0000    0.0000    0.0000 C   0  0  0  0  0  0  0  0  0  0  0  0
    0.0000    0.0000    0.0000 C   0  0  0  0  0  0  0  0  0  0  0  0
    0.0000    0.0000    0.0000 C   0  0  0  0  0  0  0  0  0  0  0  0
    0.0000    0.0000    0.0000 O   0  0  0  0  0  0  0  0  0  0  0  0
    0.0000    0.0000    0.0000 C   0  0  0  0  0  0  0  0  0  0  0  0
    0.0000    0.0000    0.0000 C   0  0  0  0  0  0  0  0  0  0  0  0
    0.0000    0.0000    0.0000 C   0  0  0  0  0  0  0  0  0  0  0  0
    0.0000    0.0000    0.0000 C   0  0  0  0  0  0  0  0  0  0  0  0
    0.0000    0.0000    0.0000 C   0  0  0  0  0  0  0  0  0  0  0  0
    0.0000    0.0000    0.0000 C   0  0  0  0  0  0  0  0  0  0  0  0
    0.0000    0.0000    0.0000 C   0  0  0  0  0  0  0  0  0  0  0  0
    0.0000    0.0000    0.0000 O   0  0  0  0  0  0  0  0  0  0  0  0
    0.0000    0.0000    0.0000 N   0  0  0  0  0  0  0  0  0  0  0  0
    0.0000    0.0000    0.0000 C   0  0  0  0  0  0  0  0  0  0  0  0
    0.0000    0.0000    0.0000 C   0  0  0  0  0  0  0  0  0  0  0  0
  1  2  1  0
  2  3  1  0
  3  4  1  0
  4  5  1  0
  5  6  1  0
  6  7  1  0
  7  8  1  0
  8  9  1  0
  9 10  1  0
 10 11  1  0
 11 12  1  0
 12 13  1  0
 12 14  1  0
 14 15  1  0
 15 16  2  0
 16 17  1  0
 17 18  2  0
 18 19  1  0
 19 20  2  0
 19 21  1  0
 21 22  2  0
 21 23  1  0
  4 24  2  0
 24 25  1  0
 25  2  2  0
 10  6  1  0
 13  7  1  0
 20 15  1  0
M  END
>  <pIC50>  (599) 
4.96

>  <ChEMBL_ID>  (599) 
CHEMBL1255595

>  <document_journal>  (599) 
Bioorg. Med. Chem. Lett.

>  <bao_endpoint>  (599) 
BAO_0000190

>  <potential_duplicate>  (599) 
False

>  <uo_units>  (599) 
UO_0000065

>  <canonical_smiles>  (599) 
Cc1oc(CN2[C@@H]3CC[C@H]2C[C@@H](C3)Oc4cccc(c4)C(=O)N)cc1

>  <parent_molecule_chembl_id>  (599) 
CHEMBL1255595

>  <assay_type>  (599) 
F

>  <src_id>  (599) 
1

>  <ligand_efficiency>  (599) 
None

>  <standard_flag>  (599) 
True

>  <molecule_chembl_id>  (599) 
CHEMBL1255595

>  <target_organism>  (599) 
Homo sapiens

>  <standard_units>  (599) 
nM

>  <record_id>  (599) 
962606

>  <document_chembl_id>  (599) 
CHEMBL1255514

>  <bao_format>  (599) 
BAO_0000019

>  <data_validity_description>  (599) 
None

>  <activity_id>  (599) 
3497803

>  <standard_type>  (599) 
IC50

>  <target_chembl_id>  (599) 
CHEMBL233

>  <data_validity_comment>  (599) 
None

>  <published_value>  (599) 
10854

>  <document_year>  (599) 
2010

>  <target_pref_name>  (599) 
Mu opioid receptor

>  <assay_chembl_id>  (599) 
CHEMBL1259357

>  <standard_relation>  (599) 
=

>  <assay_description>  (599) 
Antagonist activity at human mu opioid receptor assessed as inhibition of DAMGO-stimulated [35S]GTPgammaS binding

>  <published_relation>  (599) 
=

>  <standard_value>  (599) 
10854

>  <qudt_units>  (599) 
http://www.openphacts.org/units/Nanomolar

>  <target_tax_id>  (599) 
9606

>  <bao_label>  (599) 
assay format

>  <published_units>  (599) 
nM

>  <pchembl_value>  (599) 
4.96

>  <published_type>  (599) 
IC50

>  <activity_comment>  (599) 
None

$$$$

     RDKit          

 26 29  0  0  0  0  0  0  0  0999 V2000
    0.0000    0.0000    0.0000 N   0  0  0  0  0  0  0  0  0  0  0  0
    0.0000    0.0000    0.0000 C   0  0  0  0  0  0  0  0  0  0  0  0
    0.0000    0.0000    0.0000 O   0  0  0  0  0  0  0  0  0  0  0  0
    0.0000    0.0000    0.0000 C   0  0  0  0  0  0  0  0  0  0  0  0
    0.0000    0.0000    0.0000 C   0  0  0  0  0  0  0  0  0  0  0  0
    0.0000    0.0000    0.0000 C   0  0  0  0  0  0  0  0  0  0  0  0
    0.0000    0.0000    0.0000 C   0  0  0  0  0  0  0  0  0  0  0  0
    0.0000    0.0000    0.0000 C   0  0  0  0  0  0  0  0  0  0  0  0
    0.0000    0.0000    0.0000 O   0  0  0  0  0  0  0  0  0  0  0  0
    0.0000    0.0000    0.0000 C   0  0  0  0  0  0  0  0  0  0  0  0
    0.0000    0.0000    0.0000 C   0  0  0  0  0  0  0  0  0  0  0  0
    0.0000    0.0000    0.0000 C   0  0  0  0  0  0  0  0  0  0  0  0
    0.0000    0.0000    0.0000 C   0  0  0  0  0  0  0  0  0  0  0  0
    0.0000    0.0000    0.0000 C   0  0  0  0  0  0  0  0  0  0  0  0
    0.0000    0.0000    0.0000 C   0  0  0  0  0  0  0  0  0  0  0  0
    0.0000    0.0000    0.0000 C   0  0  0  0  0  0  0  0  0  0  0  0
    0.0000    0.0000    0.0000 N   0  0  0  0  0  0  0  0  0  0  0  0
    0.0000    0.0000    0.0000 C   0  0  0  0  0  0  0  0  0  0  0  0
    0.0000    0.0000    0.0000 C   0  0  0  0  0  0  0  0  0  0  0  0
    0.0000    0.0000    0.0000 C   0  0  0  0  0  0  0  0  0  0  0  0
    0.0000    0.0000    0.0000 C   0  0  0  0  0  0  0  0  0  0  0  0
    0.0000    0.0000    0.0000 C   0  0  0  0  0  0  0  0  0  0  0  0
    0.0000    0.0000    0.0000 C   0  0  0  0  0  0  0  0  0  0  0  0
    0.0000    0.0000    0.0000 C   0  0  0  0  0  0  0  0  0  0  0  0
    0.0000    0.0000    0.0000 C   0  0  0  0  0  0  0  0  0  0  0  0
    0.0000    0.0000    0.0000 C   0  0  0  0  0  0  0  0  0  0  0  0
  1  2  1  0
  2  3  2  0
  2  4  1  0
  4  5  2  0
  5  6  1  0
  6  7  2  0
  7  8  1  0
  8  9  1  0
  9 10  1  0
 10 11  1  0
 11 12  1  0
 12 13  1  0
 13 14  1  0
 14 15  1  0
 15 16  1  0
 15 17  1  0
 17 18  1  0
 18 19  1  0
 19 20  1  0
 20 21  2  0
 21 22  1  0
 22 23  2  0
 23 24  1  0
 24 25  2  0
  8 26  2  0
 26  4  1  0
 16 10  1  0
 17 12  1  0
 25 20  1  0
M  END
>  <pIC50>  (600) 
6.37

>  <ChEMBL_ID>  (600) 
CHEMBL1257698

>  <document_journal>  (600) 
Bioorg. Med. Chem. Lett.

>  <bao_endpoint>  (600) 
BAO_0000190

>  <potential_duplicate>  (600) 
False

>  <uo_units>  (600) 
UO_0000065

>  <canonical_smiles>  (600) 
NC(=O)c1cccc(O[C@@H]2C[C@H]3CC[C@@H](C2)N3CCc4ccccc4)c1

>  <parent_molecule_chembl_id>  (600) 
CHEMBL1257698

>  <assay_type>  (600) 
F

>  <src_id>  (600) 
1

>  <ligand_efficiency>  (600) 
None

>  <standard_flag>  (600) 
True

>  <molecule_chembl_id>  (600) 
CHEMBL1257698

>  <target_organism>  (600) 
Homo sapiens

>  <standard_units>  (600) 
nM

>  <record_id>  (600) 
962607

>  <document_chembl_id>  (600) 
CHEMBL1255514

>  <bao_format>  (600) 
BAO_0000019

>  <data_validity_description>  (600) 
None

>  <activity_id>  (600) 
3497804

>  <standard_type>  (600) 
IC50

>  <target_chembl_id>  (600) 
CHEMBL233

>  <data_validity_comment>  (600) 
None

>  <published_value>  (600) 
424

>  <document_year>  (600) 
2010

>  <target_pref_name>  (600) 
Mu opioid receptor

>  <assay_chembl_id>  (600) 
CHEMBL1259357

>  <standard_relation>  (600) 
=

>  <assay_description>  (600) 
Antagonist activity at human mu opioid receptor assessed as inhibition of DAMGO-stimulated [35S]GTPgammaS binding

>  <published_relation>  (600) 
=

>  <standard_value>  (600) 
424

>  <qudt_units>  (600) 
http://www.openphacts.org/units/Nanomolar

>  <target_tax_id>  (600) 
9606

>  <bao_label>  (600) 
assay format

>  <published_units>  (600) 
nM

>  <pchembl_value>  (600) 
6.37

>  <published_type>  (600) 
IC50

>  <activity_comment>  (600) 
None

$$$$

     RDKit          

 27 30  0  0  0  0  0  0  0  0999 V2000
    0.0000    0.0000    0.0000 N   0  0  0  0  0  0  0  0  0  0  0  0
    0.0000    0.0000    0.0000 C   0  0  0  0  0  0  0  0  0  0  0  0
    0.0000    0.0000    0.0000 O   0  0  0  0  0  0  0  0  0  0  0  0
    0.0000    0.0000    0.0000 C   0  0  0  0  0  0  0  0  0  0  0  0
    0.0000    0.0000    0.0000 C   0  0  0  0  0  0  0  0  0  0  0  0
    0.0000    0.0000    0.0000 C   0  0  0  0  0  0  0  0  0  0  0  0
    0.0000    0.0000    0.0000 C   0  0  0  0  0  0  0  0  0  0  0  0
    0.0000    0.0000    0.0000 C   0  0  0  0  0  0  0  0  0  0  0  0
    0.0000    0.0000    0.0000 O   0  0  0  0  0  0  0  0  0  0  0  0
    0.0000    0.0000    0.0000 C   0  0  0  0  0  0  0  0  0  0  0  0
    0.0000    0.0000    0.0000 C   0  0  0  0  0  0  0  0  0  0  0  0
    0.0000    0.0000    0.0000 C   0  0  0  0  0  0  0  0  0  0  0  0
    0.0000    0.0000    0.0000 C   0  0  0  0  0  0  0  0  0  0  0  0
    0.0000    0.0000    0.0000 C   0  0  0  0  0  0  0  0  0  0  0  0
    0.0000    0.0000    0.0000 C   0  0  0  0  0  0  0  0  0  0  0  0
    0.0000    0.0000    0.0000 C   0  0  0  0  0  0  0  0  0  0  0  0
    0.0000    0.0000    0.0000 N   0  0  0  0  0  0  0  0  0  0  0  0
    0.0000    0.0000    0.0000 C   0  0  0  0  0  0  0  0  0  0  0  0
    0.0000    0.0000    0.0000 C   0  0  0  0  0  0  0  0  0  0  0  0
    0.0000    0.0000    0.0000 C   0  0  0  0  0  0  0  0  0  0  0  0
    0.0000    0.0000    0.0000 C   0  0  0  0  0  0  0  0  0  0  0  0
    0.0000    0.0000    0.0000 C   0  0  0  0  0  0  0  0  0  0  0  0
    0.0000    0.0000    0.0000 C   0  0  0  0  0  0  0  0  0  0  0  0
    0.0000    0.0000    0.0000 C   0  0  0  0  0  0  0  0  0  0  0  0
    0.0000    0.0000    0.0000 C   0  0  0  0  0  0  0  0  0  0  0  0
    0.0000    0.0000    0.0000 C   0  0  0  0  0  0  0  0  0  0  0  0
    0.0000    0.0000    0.0000 C   0  0  0  0  0  0  0  0  0  0  0  0
  1  2  1  0
  2  3  2  0
  2  4  1  0
  4  5  2  0
  5  6  1  0
  6  7  2  0
  7  8  1  0
  8  9  1  0
  9 10  1  0
 10 11  1  0
 11 12  1  0
 12 13  1  0
 13 14  1  0
 14 15  1  0
 15 16  1  0
 15 17  1  0
 17 18  1  0
 18 19  1  0
 19 20  1  0
 20 21  1  0
 21 22  2  0
 22 23  1  0
 23 24  2  0
 24 25  1  0
 25 26  2  0
  8 27  2  0
 27  4  1  0
 16 10  1  0
 17 12  1  0
 26 21  1  0
M  END
>  <pIC50>  (601) 
6.18

>  <ChEMBL_ID>  (601) 
CHEMBL1257820

>  <document_journal>  (601) 
Bioorg. Med. Chem. Lett.

>  <bao_endpoint>  (601) 
BAO_0000190

>  <potential_duplicate>  (601) 
False

>  <uo_units>  (601) 
UO_0000065

>  <canonical_smiles>  (601) 
NC(=O)c1cccc(O[C@@H]2C[C@H]3CC[C@@H](C2)N3CCCc4ccccc4)c1

>  <parent_molecule_chembl_id>  (601) 
CHEMBL1257820

>  <assay_type>  (601) 
F

>  <src_id>  (601) 
1

>  <ligand_efficiency>  (601) 
None

>  <standard_flag>  (601) 
True

>  <molecule_chembl_id>  (601) 
CHEMBL1257820

>  <target_organism>  (601) 
Homo sapiens

>  <standard_units>  (601) 
nM

>  <record_id>  (601) 
962735

>  <document_chembl_id>  (601) 
CHEMBL1255514

>  <bao_format>  (601) 
BAO_0000019

>  <data_validity_description>  (601) 
None

>  <activity_id>  (601) 
3497805

>  <standard_type>  (601) 
IC50

>  <target_chembl_id>  (601) 
CHEMBL233

>  <data_validity_comment>  (601) 
None

>  <published_value>  (601) 
659

>  <document_year>  (601) 
2010

>  <target_pref_name>  (601) 
Mu opioid receptor

>  <assay_chembl_id>  (601) 
CHEMBL1259357

>  <standard_relation>  (601) 
=

>  <assay_description>  (601) 
Antagonist activity at human mu opioid receptor assessed as inhibition of DAMGO-stimulated [35S]GTPgammaS binding

>  <published_relation>  (601) 
=

>  <standard_value>  (601) 
659

>  <qudt_units>  (601) 
http://www.openphacts.org/units/Nanomolar

>  <target_tax_id>  (601) 
9606

>  <bao_label>  (601) 
assay format

>  <published_units>  (601) 
nM

>  <pchembl_value>  (601) 
6.18

>  <published_type>  (601) 
IC50

>  <activity_comment>  (601) 
None

$$$$

     RDKit          

 26 29  0  0  0  0  0  0  0  0999 V2000
    0.0000    0.0000    0.0000 C   0  0  0  0  0  0  0  0  0  0  0  0
    0.0000    0.0000    0.0000 C   0  0  0  0  0  0  0  0  0  0  0  0
    0.0000    0.0000    0.0000 C   0  0  0  0  0  0  0  0  0  0  0  0
    0.0000    0.0000    0.0000 C   0  0  0  0  0  0  0  0  0  0  0  0
    0.0000    0.0000    0.0000 C   0  0  0  0  0  0  0  0  0  0  0  0
    0.0000    0.0000    0.0000 C   0  0  0  0  0  0  0  0  0  0  0  0
    0.0000    0.0000    0.0000 N   0  0  0  0  0  0  0  0  0  0  0  0
    0.0000    0.0000    0.0000 C   0  0  0  0  0  0  0  0  0  0  0  0
    0.0000    0.0000    0.0000 C   0  0  0  0  0  0  0  0  0  0  0  0
    0.0000    0.0000    0.0000 C   0  0  0  0  0  0  0  0  0  0  0  0
    0.0000    0.0000    0.0000 C   0  0  0  0  0  0  0  0  0  0  0  0
    0.0000    0.0000    0.0000 C   0  0  0  0  0  0  0  0  0  0  0  0
    0.0000    0.0000    0.0000 C   0  0  0  0  0  0  0  0  0  0  0  0
    0.0000    0.0000    0.0000 C   0  0  0  0  0  0  0  0  0  0  0  0
    0.0000    0.0000    0.0000 O   0  0  0  0  0  0  0  0  0  0  0  0
    0.0000    0.0000    0.0000 C   0  0  0  0  0  0  0  0  0  0  0  0
    0.0000    0.0000    0.0000 C   0  0  0  0  0  0  0  0  0  0  0  0
    0.0000    0.0000    0.0000 C   0  0  0  0  0  0  0  0  0  0  0  0
    0.0000    0.0000    0.0000 C   0  0  0  0  0  0  0  0  0  0  0  0
    0.0000    0.0000    0.0000 C   0  0  0  0  0  0  0  0  0  0  0  0
    0.0000    0.0000    0.0000 C   0  0  0  0  0  0  0  0  0  0  0  0
    0.0000    0.0000    0.0000 C   0  0  0  0  0  0  0  0  0  0  0  0
    0.0000    0.0000    0.0000 O   0  0  0  0  0  0  0  0  0  0  0  0
    0.0000    0.0000    0.0000 N   0  0  0  0  0  0  0  0  0  0  0  0
    0.0000    0.0000    0.0000 C   0  0  0  0  0  0  0  0  0  0  0  0
    0.0000    0.0000    0.0000 C   0  0  0  0  0  0  0  0  0  0  0  0
  1  2  1  0
  2  3  2  0
  3  4  1  0
  4  5  2  0
  5  6  1  0
  6  7  1  0
  7  8  1  0
  8  9  1  0
  9 10  1  0
 10 11  1  0
 11 12  1  0
 12 13  1  0
 13 14  1  0
 13 15  1  0
 15 16  1  0
 16 17  2  0
 17 18  1  0
 18 19  2  0
 19 20  1  0
 20 21  2  0
 20 22  1  0
 22 23  2  0
 22 24  1  0
  5 25  1  0
 25 26  2  0
 26  2  1  0
 11  7  1  0
 14  8  1  0
 21 16  1  0
M  END
>  <pIC50>  (602) 
6.32

>  <ChEMBL_ID>  (602) 
CHEMBL1257821

>  <document_journal>  (602) 
Bioorg. Med. Chem. Lett.

>  <bao_endpoint>  (602) 
BAO_0000190

>  <potential_duplicate>  (602) 
False

>  <uo_units>  (602) 
UO_0000065

>  <canonical_smiles>  (602) 
Cc1ccc(CN2[C@@H]3CC[C@H]2C[C@@H](C3)Oc4cccc(c4)C(=O)N)cc1

>  <parent_molecule_chembl_id>  (602) 
CHEMBL1257821

>  <assay_type>  (602) 
F

>  <src_id>  (602) 
1

>  <ligand_efficiency>  (602) 
None

>  <standard_flag>  (602) 
True

>  <molecule_chembl_id>  (602) 
CHEMBL1257821

>  <target_organism>  (602) 
Homo sapiens

>  <standard_units>  (602) 
nM

>  <record_id>  (602) 
962736

>  <document_chembl_id>  (602) 
CHEMBL1255514

>  <bao_format>  (602) 
BAO_0000019

>  <data_validity_description>  (602) 
None

>  <activity_id>  (602) 
3497806

>  <standard_type>  (602) 
IC50

>  <target_chembl_id>  (602) 
CHEMBL233

>  <data_validity_comment>  (602) 
None

>  <published_value>  (602) 
482

>  <document_year>  (602) 
2010

>  <target_pref_name>  (602) 
Mu opioid receptor

>  <assay_chembl_id>  (602) 
CHEMBL1259357

>  <standard_relation>  (602) 
=

>  <assay_description>  (602) 
Antagonist activity at human mu opioid receptor assessed as inhibition of DAMGO-stimulated [35S]GTPgammaS binding

>  <published_relation>  (602) 
=

>  <standard_value>  (602) 
482

>  <qudt_units>  (602) 
http://www.openphacts.org/units/Nanomolar

>  <target_tax_id>  (602) 
9606

>  <bao_label>  (602) 
assay format

>  <published_units>  (602) 
nM

>  <pchembl_value>  (602) 
6.32

>  <published_type>  (602) 
IC50

>  <activity_comment>  (602) 
None

$$$$

     RDKit          

 26 29  0  0  0  0  0  0  0  0999 V2000
    0.0000    0.0000    0.0000 C   0  0  0  0  0  0  0  0  0  0  0  0
    0.0000    0.0000    0.0000 C   0  0  0  0  0  0  0  0  0  0  0  0
    0.0000    0.0000    0.0000 C   0  0  0  0  0  0  0  0  0  0  0  0
    0.0000    0.0000    0.0000 C   0  0  0  0  0  0  0  0  0  0  0  0
    0.0000    0.0000    0.0000 C   0  0  0  0  0  0  0  0  0  0  0  0
    0.0000    0.0000    0.0000 C   0  0  0  0  0  0  0  0  0  0  0  0
    0.0000    0.0000    0.0000 C   0  0  0  0  0  0  0  0  0  0  0  0
    0.0000    0.0000    0.0000 N   0  0  0  0  0  0  0  0  0  0  0  0
    0.0000    0.0000    0.0000 C   0  0  0  0  0  0  0  0  0  0  0  0
    0.0000    0.0000    0.0000 C   0  0  0  0  0  0  0  0  0  0  0  0
    0.0000    0.0000    0.0000 C   0  0  0  0  0  0  0  0  0  0  0  0
    0.0000    0.0000    0.0000 C   0  0  0  0  0  0  0  0  0  0  0  0
    0.0000    0.0000    0.0000 C   0  0  0  0  0  0  0  0  0  0  0  0
    0.0000    0.0000    0.0000 C   0  0  0  0  0  0  0  0  0  0  0  0
    0.0000    0.0000    0.0000 C   0  0  0  0  0  0  0  0  0  0  0  0
    0.0000    0.0000    0.0000 O   0  0  0  0  0  0  0  0  0  0  0  0
    0.0000    0.0000    0.0000 C   0  0  0  0  0  0  0  0  0  0  0  0
    0.0000    0.0000    0.0000 C   0  0  0  0  0  0  0  0  0  0  0  0
    0.0000    0.0000    0.0000 C   0  0  0  0  0  0  0  0  0  0  0  0
    0.0000    0.0000    0.0000 C   0  0  0  0  0  0  0  0  0  0  0  0
    0.0000    0.0000    0.0000 C   0  0  0  0  0  0  0  0  0  0  0  0
    0.0000    0.0000    0.0000 C   0  0  0  0  0  0  0  0  0  0  0  0
    0.0000    0.0000    0.0000 C   0  0  0  0  0  0  0  0  0  0  0  0
    0.0000    0.0000    0.0000 O   0  0  0  0  0  0  0  0  0  0  0  0
    0.0000    0.0000    0.0000 N   0  0  0  0  0  0  0  0  0  0  0  0
    0.0000    0.0000    0.0000 C   0  0  0  0  0  0  0  0  0  0  0  0
  1  2  1  0
  2  3  2  0
  3  4  1  0
  4  5  2  0
  5  6  1  0
  6  7  1  0
  7  8  1  0
  8  9  1  0
  9 10  1  0
 10 11  1  0
 11 12  1  0
 12 13  1  0
 13 14  1  0
 14 15  1  0
 14 16  1  0
 16 17  1  0
 17 18  2  0
 18 19  1  0
 19 20  2  0
 20 21  1  0
 21 22  2  0
 21 23  1  0
 23 24  2  0
 23 25  1  0
  6 26  2  0
 26  2  1  0
 12  8  1  0
 15  9  1  0
 22 17  1  0
M  END
>  <pIC50>  (603) 
5.58

>  <ChEMBL_ID>  (603) 
CHEMBL1257937

>  <document_journal>  (603) 
Bioorg. Med. Chem. Lett.

>  <bao_endpoint>  (603) 
BAO_0000190

>  <potential_duplicate>  (603) 
False

>  <uo_units>  (603) 
UO_0000065

>  <canonical_smiles>  (603) 
Cc1cccc(CN2[C@@H]3CC[C@H]2C[C@@H](C3)Oc4cccc(c4)C(=O)N)c1

>  <parent_molecule_chembl_id>  (603) 
CHEMBL1257937

>  <assay_type>  (603) 
F

>  <src_id>  (603) 
1

>  <ligand_efficiency>  (603) 
None

>  <standard_flag>  (603) 
True

>  <molecule_chembl_id>  (603) 
CHEMBL1257937

>  <target_organism>  (603) 
Homo sapiens

>  <standard_units>  (603) 
nM

>  <record_id>  (603) 
962865

>  <document_chembl_id>  (603) 
CHEMBL1255514

>  <bao_format>  (603) 
BAO_0000019

>  <data_validity_description>  (603) 
None

>  <activity_id>  (603) 
3497807

>  <standard_type>  (603) 
IC50

>  <target_chembl_id>  (603) 
CHEMBL233

>  <data_validity_comment>  (603) 
None

>  <published_value>  (603) 
2648

>  <document_year>  (603) 
2010

>  <target_pref_name>  (603) 
Mu opioid receptor

>  <assay_chembl_id>  (603) 
CHEMBL1259357

>  <standard_relation>  (603) 
=

>  <assay_description>  (603) 
Antagonist activity at human mu opioid receptor assessed as inhibition of DAMGO-stimulated [35S]GTPgammaS binding

>  <published_relation>  (603) 
=

>  <standard_value>  (603) 
2648

>  <qudt_units>  (603) 
http://www.openphacts.org/units/Nanomolar

>  <target_tax_id>  (603) 
9606

>  <bao_label>  (603) 
assay format

>  <published_units>  (603) 
nM

>  <pchembl_value>  (603) 
5.58

>  <published_type>  (603) 
IC50

>  <activity_comment>  (603) 
None

$$$$

     RDKit          

 26 29  0  0  0  0  0  0  0  0999 V2000
    0.0000    0.0000    0.0000 C   0  0  0  0  0  0  0  0  0  0  0  0
    0.0000    0.0000    0.0000 C   0  0  0  0  0  0  0  0  0  0  0  0
    0.0000    0.0000    0.0000 C   0  0  0  0  0  0  0  0  0  0  0  0
    0.0000    0.0000    0.0000 C   0  0  0  0  0  0  0  0  0  0  0  0
    0.0000    0.0000    0.0000 C   0  0  0  0  0  0  0  0  0  0  0  0
    0.0000    0.0000    0.0000 C   0  0  0  0  0  0  0  0  0  0  0  0
    0.0000    0.0000    0.0000 C   0  0  0  0  0  0  0  0  0  0  0  0
    0.0000    0.0000    0.0000 C   0  0  0  0  0  0  0  0  0  0  0  0
    0.0000    0.0000    0.0000 N   0  0  0  0  0  0  0  0  0  0  0  0
    0.0000    0.0000    0.0000 C   0  0  0  0  0  0  0  0  0  0  0  0
    0.0000    0.0000    0.0000 C   0  0  0  0  0  0  0  0  0  0  0  0
    0.0000    0.0000    0.0000 C   0  0  0  0  0  0  0  0  0  0  0  0
    0.0000    0.0000    0.0000 C   0  0  0  0  0  0  0  0  0  0  0  0
    0.0000    0.0000    0.0000 C   0  0  0  0  0  0  0  0  0  0  0  0
    0.0000    0.0000    0.0000 C   0  0  0  0  0  0  0  0  0  0  0  0
    0.0000    0.0000    0.0000 C   0  0  0  0  0  0  0  0  0  0  0  0
    0.0000    0.0000    0.0000 O   0  0  0  0  0  0  0  0  0  0  0  0
    0.0000    0.0000    0.0000 C   0  0  0  0  0  0  0  0  0  0  0  0
    0.0000    0.0000    0.0000 C   0  0  0  0  0  0  0  0  0  0  0  0
    0.0000    0.0000    0.0000 C   0  0  0  0  0  0  0  0  0  0  0  0
    0.0000    0.0000    0.0000 C   0  0  0  0  0  0  0  0  0  0  0  0
    0.0000    0.0000    0.0000 C   0  0  0  0  0  0  0  0  0  0  0  0
    0.0000    0.0000    0.0000 C   0  0  0  0  0  0  0  0  0  0  0  0
    0.0000    0.0000    0.0000 C   0  0  0  0  0  0  0  0  0  0  0  0
    0.0000    0.0000    0.0000 O   0  0  0  0  0  0  0  0  0  0  0  0
    0.0000    0.0000    0.0000 N   0  0  0  0  0  0  0  0  0  0  0  0
  1  2  1  0
  2  3  2  0
  3  4  1  0
  4  5  2  0
  5  6  1  0
  6  7  2  0
  7  8  1  0
  8  9  1  0
  9 10  1  0
 10 11  1  0
 11 12  1  0
 12 13  1  0
 13 14  1  0
 14 15  1  0
 15 16  1  0
 15 17  1  0
 17 18  1  0
 18 19  2  0
 19 20  1  0
 20 21  2  0
 21 22  1  0
 22 23  2  0
 22 24  1  0
 24 25  2  0
 24 26  1  0
  7  2  1  0
 13  9  1  0
 16 10  1  0
 23 18  1  0
M  END
>  <pIC50>  (604) 
4.76

>  <ChEMBL_ID>  (604) 
CHEMBL1257938

>  <document_journal>  (604) 
Bioorg. Med. Chem. Lett.

>  <bao_endpoint>  (604) 
BAO_0000190

>  <potential_duplicate>  (604) 
False

>  <uo_units>  (604) 
UO_0000065

>  <canonical_smiles>  (604) 
Cc1ccccc1CN2[C@@H]3CC[C@H]2C[C@@H](C3)Oc4cccc(c4)C(=O)N

>  <parent_molecule_chembl_id>  (604) 
CHEMBL1257938

>  <assay_type>  (604) 
F

>  <src_id>  (604) 
1

>  <ligand_efficiency>  (604) 
None

>  <standard_flag>  (604) 
True

>  <molecule_chembl_id>  (604) 
CHEMBL1257938

>  <target_organism>  (604) 
Homo sapiens

>  <standard_units>  (604) 
nM

>  <record_id>  (604) 
962866

>  <document_chembl_id>  (604) 
CHEMBL1255514

>  <bao_format>  (604) 
BAO_0000019

>  <data_validity_description>  (604) 
None

>  <activity_id>  (604) 
3497808

>  <standard_type>  (604) 
IC50

>  <target_chembl_id>  (604) 
CHEMBL233

>  <data_validity_comment>  (604) 
None

>  <published_value>  (604) 
17554

>  <document_year>  (604) 
2010

>  <target_pref_name>  (604) 
Mu opioid receptor

>  <assay_chembl_id>  (604) 
CHEMBL1259357

>  <standard_relation>  (604) 
=

>  <assay_description>  (604) 
Antagonist activity at human mu opioid receptor assessed as inhibition of DAMGO-stimulated [35S]GTPgammaS binding

>  <published_relation>  (604) 
=

>  <standard_value>  (604) 
17554

>  <qudt_units>  (604) 
http://www.openphacts.org/units/Nanomolar

>  <target_tax_id>  (604) 
9606

>  <bao_label>  (604) 
assay format

>  <published_units>  (604) 
nM

>  <pchembl_value>  (604) 
4.76

>  <published_type>  (604) 
IC50

>  <activity_comment>  (604) 
None

$$$$

     RDKit          

 25 28  0  0  0  0  0  0  0  0999 V2000
    0.0000    0.0000    0.0000 N   0  0  0  0  0  0  0  0  0  0  0  0
    0.0000    0.0000    0.0000 C   0  0  0  0  0  0  0  0  0  0  0  0
    0.0000    0.0000    0.0000 O   0  0  0  0  0  0  0  0  0  0  0  0
    0.0000    0.0000    0.0000 C   0  0  0  0  0  0  0  0  0  0  0  0
    0.0000    0.0000    0.0000 C   0  0  0  0  0  0  0  0  0  0  0  0
    0.0000    0.0000    0.0000 C   0  0  0  0  0  0  0  0  0  0  0  0
    0.0000    0.0000    0.0000 C   0  0  0  0  0  0  0  0  0  0  0  0
    0.0000    0.0000    0.0000 C   0  0  0  0  0  0  0  0  0  0  0  0
    0.0000    0.0000    0.0000 O   0  0  0  0  0  0  0  0  0  0  0  0
    0.0000    0.0000    0.0000 C   0  0  0  0  0  0  0  0  0  0  0  0
    0.0000    0.0000    0.0000 C   0  0  0  0  0  0  0  0  0  0  0  0
    0.0000    0.0000    0.0000 C   0  0  0  0  0  0  0  0  0  0  0  0
    0.0000    0.0000    0.0000 C   0  0  0  0  0  0  0  0  0  0  0  0
    0.0000    0.0000    0.0000 C   0  0  0  0  0  0  0  0  0  0  0  0
    0.0000    0.0000    0.0000 C   0  0  0  0  0  0  0  0  0  0  0  0
    0.0000    0.0000    0.0000 C   0  0  0  0  0  0  0  0  0  0  0  0
    0.0000    0.0000    0.0000 N   0  0  0  0  0  0  0  0  0  0  0  0
    0.0000    0.0000    0.0000 C   0  0  0  0  0  0  0  0  0  0  0  0
    0.0000    0.0000    0.0000 C   0  0  0  0  0  0  0  0  0  0  0  0
    0.0000    0.0000    0.0000 C   0  0  0  0  0  0  0  0  0  0  0  0
    0.0000    0.0000    0.0000 C   0  0  0  0  0  0  0  0  0  0  0  0
    0.0000    0.0000    0.0000 N   0  0  0  0  0  0  0  0  0  0  0  0
    0.0000    0.0000    0.0000 C   0  0  0  0  0  0  0  0  0  0  0  0
    0.0000    0.0000    0.0000 C   0  0  0  0  0  0  0  0  0  0  0  0
    0.0000    0.0000    0.0000 C   0  0  0  0  0  0  0  0  0  0  0  0
  1  2  1  0
  2  3  2  0
  2  4  1  0
  4  5  2  0
  5  6  1  0
  6  7  2  0
  7  8  1  0
  8  9  1  0
  9 10  1  0
 10 11  1  0
 11 12  1  0
 12 13  1  0
 13 14  1  0
 14 15  1  0
 15 16  1  0
 15 17  1  0
 17 18  1  0
 18 19  1  0
 19 20  2  0
 20 21  1  0
 21 22  2  0
 22 23  1  0
 23 24  2  0
  8 25  2  0
 25  4  1  0
 16 10  1  0
 17 12  1  0
 24 19  1  0
M  END
>  <pIC50>  (605) 
5.11

>  <ChEMBL_ID>  (605) 
CHEMBL1258047

>  <document_journal>  (605) 
Bioorg. Med. Chem. Lett.

>  <bao_endpoint>  (605) 
BAO_0000190

>  <potential_duplicate>  (605) 
False

>  <uo_units>  (605) 
UO_0000065

>  <canonical_smiles>  (605) 
NC(=O)c1cccc(O[C@@H]2C[C@H]3CC[C@@H](C2)N3Cc4ccncc4)c1

>  <parent_molecule_chembl_id>  (605) 
CHEMBL1258047

>  <assay_type>  (605) 
F

>  <src_id>  (605) 
1

>  <ligand_efficiency>  (605) 
None

>  <standard_flag>  (605) 
True

>  <molecule_chembl_id>  (605) 
CHEMBL1258047

>  <target_organism>  (605) 
Homo sapiens

>  <standard_units>  (605) 
nM

>  <record_id>  (605) 
962990

>  <document_chembl_id>  (605) 
CHEMBL1255514

>  <bao_format>  (605) 
BAO_0000019

>  <data_validity_description>  (605) 
None

>  <activity_id>  (605) 
3497809

>  <standard_type>  (605) 
IC50

>  <target_chembl_id>  (605) 
CHEMBL233

>  <data_validity_comment>  (605) 
None

>  <published_value>  (605) 
7854

>  <document_year>  (605) 
2010

>  <target_pref_name>  (605) 
Mu opioid receptor

>  <assay_chembl_id>  (605) 
CHEMBL1259357

>  <standard_relation>  (605) 
=

>  <assay_description>  (605) 
Antagonist activity at human mu opioid receptor assessed as inhibition of DAMGO-stimulated [35S]GTPgammaS binding

>  <published_relation>  (605) 
=

>  <standard_value>  (605) 
7854

>  <qudt_units>  (605) 
http://www.openphacts.org/units/Nanomolar

>  <target_tax_id>  (605) 
9606

>  <bao_label>  (605) 
assay format

>  <published_units>  (605) 
nM

>  <pchembl_value>  (605) 
5.11

>  <published_type>  (605) 
IC50

>  <activity_comment>  (605) 
None

$$$$

     RDKit          

 25 28  0  0  0  0  0  0  0  0999 V2000
    0.0000    0.0000    0.0000 N   0  0  0  0  0  0  0  0  0  0  0  0
    0.0000    0.0000    0.0000 C   0  0  0  0  0  0  0  0  0  0  0  0
    0.0000    0.0000    0.0000 O   0  0  0  0  0  0  0  0  0  0  0  0
    0.0000    0.0000    0.0000 C   0  0  0  0  0  0  0  0  0  0  0  0
    0.0000    0.0000    0.0000 C   0  0  0  0  0  0  0  0  0  0  0  0
    0.0000    0.0000    0.0000 C   0  0  0  0  0  0  0  0  0  0  0  0
    0.0000    0.0000    0.0000 C   0  0  0  0  0  0  0  0  0  0  0  0
    0.0000    0.0000    0.0000 C   0  0  0  0  0  0  0  0  0  0  0  0
    0.0000    0.0000    0.0000 O   0  0  0  0  0  0  0  0  0  0  0  0
    0.0000    0.0000    0.0000 C   0  0  0  0  0  0  0  0  0  0  0  0
    0.0000    0.0000    0.0000 C   0  0  0  0  0  0  0  0  0  0  0  0
    0.0000    0.0000    0.0000 C   0  0  0  0  0  0  0  0  0  0  0  0
    0.0000    0.0000    0.0000 C   0  0  0  0  0  0  0  0  0  0  0  0
    0.0000    0.0000    0.0000 C   0  0  0  0  0  0  0  0  0  0  0  0
    0.0000    0.0000    0.0000 C   0  0  0  0  0  0  0  0  0  0  0  0
    0.0000    0.0000    0.0000 C   0  0  0  0  0  0  0  0  0  0  0  0
    0.0000    0.0000    0.0000 N   0  0  0  0  0  0  0  0  0  0  0  0
    0.0000    0.0000    0.0000 C   0  0  0  0  0  0  0  0  0  0  0  0
    0.0000    0.0000    0.0000 C   0  0  0  0  0  0  0  0  0  0  0  0
    0.0000    0.0000    0.0000 C   0  0  0  0  0  0  0  0  0  0  0  0
    0.0000    0.0000    0.0000 C   0  0  0  0  0  0  0  0  0  0  0  0
    0.0000    0.0000    0.0000 C   0  0  0  0  0  0  0  0  0  0  0  0
    0.0000    0.0000    0.0000 N   0  0  0  0  0  0  0  0  0  0  0  0
    0.0000    0.0000    0.0000 C   0  0  0  0  0  0  0  0  0  0  0  0
    0.0000    0.0000    0.0000 C   0  0  0  0  0  0  0  0  0  0  0  0
  1  2  1  0
  2  3  2  0
  2  4  1  0
  4  5  2  0
  5  6  1  0
  6  7  2  0
  7  8  1  0
  8  9  1  0
  9 10  1  0
 10 11  1  0
 11 12  1  0
 12 13  1  0
 13 14  1  0
 14 15  1  0
 15 16  1  0
 15 17  1  0
 17 18  1  0
 18 19  1  0
 19 20  2  0
 20 21  1  0
 21 22  2  0
 22 23  1  0
 23 24  2  0
  8 25  2  0
 25  4  1  0
 16 10  1  0
 17 12  1  0
 24 19  1  0
M  END
>  <pIC50>  (606) 
5.54

>  <ChEMBL_ID>  (606) 
CHEMBL1258048

>  <document_journal>  (606) 
Bioorg. Med. Chem. Lett.

>  <bao_endpoint>  (606) 
BAO_0000190

>  <potential_duplicate>  (606) 
False

>  <uo_units>  (606) 
UO_0000065

>  <canonical_smiles>  (606) 
NC(=O)c1cccc(O[C@@H]2C[C@H]3CC[C@@H](C2)N3Cc4cccnc4)c1

>  <parent_molecule_chembl_id>  (606) 
CHEMBL1258048

>  <assay_type>  (606) 
F

>  <src_id>  (606) 
1

>  <ligand_efficiency>  (606) 
None

>  <standard_flag>  (606) 
True

>  <molecule_chembl_id>  (606) 
CHEMBL1258048

>  <target_organism>  (606) 
Homo sapiens

>  <standard_units>  (606) 
nM

>  <record_id>  (606) 
962991

>  <document_chembl_id>  (606) 
CHEMBL1255514

>  <bao_format>  (606) 
BAO_0000019

>  <data_validity_description>  (606) 
None

>  <activity_id>  (606) 
3497810

>  <standard_type>  (606) 
IC50

>  <target_chembl_id>  (606) 
CHEMBL233

>  <data_validity_comment>  (606) 
None

>  <published_value>  (606) 
2894

>  <document_year>  (606) 
2010

>  <target_pref_name>  (606) 
Mu opioid receptor

>  <assay_chembl_id>  (606) 
CHEMBL1259357

>  <standard_relation>  (606) 
=

>  <assay_description>  (606) 
Antagonist activity at human mu opioid receptor assessed as inhibition of DAMGO-stimulated [35S]GTPgammaS binding

>  <published_relation>  (606) 
=

>  <standard_value>  (606) 
2894

>  <qudt_units>  (606) 
http://www.openphacts.org/units/Nanomolar

>  <target_tax_id>  (606) 
9606

>  <bao_label>  (606) 
assay format

>  <published_units>  (606) 
nM

>  <pchembl_value>  (606) 
5.54

>  <published_type>  (606) 
IC50

>  <activity_comment>  (606) 
None

$$$$

     RDKit          

 25 28  0  0  0  0  0  0  0  0999 V2000
    0.0000    0.0000    0.0000 N   0  0  0  0  0  0  0  0  0  0  0  0
    0.0000    0.0000    0.0000 C   0  0  0  0  0  0  0  0  0  0  0  0
    0.0000    0.0000    0.0000 O   0  0  0  0  0  0  0  0  0  0  0  0
    0.0000    0.0000    0.0000 C   0  0  0  0  0  0  0  0  0  0  0  0
    0.0000    0.0000    0.0000 C   0  0  0  0  0  0  0  0  0  0  0  0
    0.0000    0.0000    0.0000 C   0  0  0  0  0  0  0  0  0  0  0  0
    0.0000    0.0000    0.0000 C   0  0  0  0  0  0  0  0  0  0  0  0
    0.0000    0.0000    0.0000 C   0  0  0  0  0  0  0  0  0  0  0  0
    0.0000    0.0000    0.0000 O   0  0  0  0  0  0  0  0  0  0  0  0
    0.0000    0.0000    0.0000 C   0  0  0  0  0  0  0  0  0  0  0  0
    0.0000    0.0000    0.0000 C   0  0  0  0  0  0  0  0  0  0  0  0
    0.0000    0.0000    0.0000 C   0  0  0  0  0  0  0  0  0  0  0  0
    0.0000    0.0000    0.0000 C   0  0  0  0  0  0  0  0  0  0  0  0
    0.0000    0.0000    0.0000 C   0  0  0  0  0  0  0  0  0  0  0  0
    0.0000    0.0000    0.0000 C   0  0  0  0  0  0  0  0  0  0  0  0
    0.0000    0.0000    0.0000 C   0  0  0  0  0  0  0  0  0  0  0  0
    0.0000    0.0000    0.0000 N   0  0  0  0  0  0  0  0  0  0  0  0
    0.0000    0.0000    0.0000 C   0  0  0  0  0  0  0  0  0  0  0  0
    0.0000    0.0000    0.0000 C   0  0  0  0  0  0  0  0  0  0  0  0
    0.0000    0.0000    0.0000 C   0  0  0  0  0  0  0  0  0  0  0  0
    0.0000    0.0000    0.0000 C   0  0  0  0  0  0  0  0  0  0  0  0
    0.0000    0.0000    0.0000 C   0  0  0  0  0  0  0  0  0  0  0  0
    0.0000    0.0000    0.0000 C   0  0  0  0  0  0  0  0  0  0  0  0
    0.0000    0.0000    0.0000 N   0  0  0  0  0  0  0  0  0  0  0  0
    0.0000    0.0000    0.0000 C   0  0  0  0  0  0  0  0  0  0  0  0
  1  2  1  0
  2  3  2  0
  2  4  1  0
  4  5  2  0
  5  6  1  0
  6  7  2  0
  7  8  1  0
  8  9  1  0
  9 10  1  0
 10 11  1  0
 11 12  1  0
 12 13  1  0
 13 14  1  0
 14 15  1  0
 15 16  1  0
 15 17  1  0
 17 18  1  0
 18 19  1  0
 19 20  2  0
 20 21  1  0
 21 22  2  0
 22 23  1  0
 23 24  2  0
  8 25  2  0
 25  4  1  0
 16 10  1  0
 17 12  1  0
 24 19  1  0
M  END
>  <pIC50>  (607) 
4.72

>  <ChEMBL_ID>  (607) 
CHEMBL1258164

>  <document_journal>  (607) 
Bioorg. Med. Chem. Lett.

>  <bao_endpoint>  (607) 
BAO_0000190

>  <potential_duplicate>  (607) 
False

>  <uo_units>  (607) 
UO_0000065

>  <canonical_smiles>  (607) 
NC(=O)c1cccc(O[C@@H]2C[C@H]3CC[C@@H](C2)N3Cc4ccccn4)c1

>  <parent_molecule_chembl_id>  (607) 
CHEMBL1258164

>  <assay_type>  (607) 
F

>  <src_id>  (607) 
1

>  <ligand_efficiency>  (607) 
None

>  <standard_flag>  (607) 
True

>  <molecule_chembl_id>  (607) 
CHEMBL1258164

>  <target_organism>  (607) 
Homo sapiens

>  <standard_units>  (607) 
nM

>  <record_id>  (607) 
963116

>  <document_chembl_id>  (607) 
CHEMBL1255514

>  <bao_format>  (607) 
BAO_0000019

>  <data_validity_description>  (607) 
None

>  <activity_id>  (607) 
3497811

>  <standard_type>  (607) 
IC50

>  <target_chembl_id>  (607) 
CHEMBL233

>  <data_validity_comment>  (607) 
None

>  <published_value>  (607) 
19001

>  <document_year>  (607) 
2010

>  <target_pref_name>  (607) 
Mu opioid receptor

>  <assay_chembl_id>  (607) 
CHEMBL1259357

>  <standard_relation>  (607) 
=

>  <assay_description>  (607) 
Antagonist activity at human mu opioid receptor assessed as inhibition of DAMGO-stimulated [35S]GTPgammaS binding

>  <published_relation>  (607) 
=

>  <standard_value>  (607) 
19001

>  <qudt_units>  (607) 
http://www.openphacts.org/units/Nanomolar

>  <target_tax_id>  (607) 
9606

>  <bao_label>  (607) 
assay format

>  <published_units>  (607) 
nM

>  <pchembl_value>  (607) 
4.72

>  <published_type>  (607) 
IC50

>  <activity_comment>  (607) 
None

$$$$

     RDKit          

 25 28  0  0  0  0  0  0  0  0999 V2000
    0.0000    0.0000    0.0000 N   0  0  0  0  0  0  0  0  0  0  0  0
    0.0000    0.0000    0.0000 C   0  0  0  0  0  0  0  0  0  0  0  0
    0.0000    0.0000    0.0000 O   0  0  0  0  0  0  0  0  0  0  0  0
    0.0000    0.0000    0.0000 C   0  0  0  0  0  0  0  0  0  0  0  0
    0.0000    0.0000    0.0000 C   0  0  0  0  0  0  0  0  0  0  0  0
    0.0000    0.0000    0.0000 C   0  0  0  0  0  0  0  0  0  0  0  0
    0.0000    0.0000    0.0000 C   0  0  0  0  0  0  0  0  0  0  0  0
    0.0000    0.0000    0.0000 C   0  0  0  0  0  0  0  0  0  0  0  0
    0.0000    0.0000    0.0000 O   0  0  0  0  0  0  0  0  0  0  0  0
    0.0000    0.0000    0.0000 C   0  0  0  0  0  0  0  0  0  0  0  0
    0.0000    0.0000    0.0000 C   0  0  0  0  0  0  0  0  0  0  0  0
    0.0000    0.0000    0.0000 C   0  0  0  0  0  0  0  0  0  0  0  0
    0.0000    0.0000    0.0000 C   0  0  0  0  0  0  0  0  0  0  0  0
    0.0000    0.0000    0.0000 C   0  0  0  0  0  0  0  0  0  0  0  0
    0.0000    0.0000    0.0000 C   0  0  0  0  0  0  0  0  0  0  0  0
    0.0000    0.0000    0.0000 C   0  0  0  0  0  0  0  0  0  0  0  0
    0.0000    0.0000    0.0000 N   0  0  0  0  0  0  0  0  0  0  0  0
    0.0000    0.0000    0.0000 C   0  0  0  0  0  0  0  0  0  0  0  0
    0.0000    0.0000    0.0000 C   0  0  0  0  0  0  0  0  0  0  0  0
    0.0000    0.0000    0.0000 C   0  0  0  0  0  0  0  0  0  0  0  0
    0.0000    0.0000    0.0000 C   0  0  0  0  0  0  0  0  0  0  0  0
    0.0000    0.0000    0.0000 C   0  0  0  0  0  0  0  0  0  0  0  0
    0.0000    0.0000    0.0000 C   0  0  0  0  0  0  0  0  0  0  0  0
    0.0000    0.0000    0.0000 C   0  0  0  0  0  0  0  0  0  0  0  0
    0.0000    0.0000    0.0000 C   0  0  0  0  0  0  0  0  0  0  0  0
  1  2  1  0
  2  3  2  0
  2  4  1  0
  4  5  2  0
  5  6  1  0
  6  7  2  0
  7  8  1  0
  8  9  1  0
  9 10  1  0
 10 11  1  0
 11 12  1  0
 12 13  1  0
 13 14  1  0
 14 15  1  0
 15 16  1  0
 15 17  1  0
 17 18  1  0
 18 19  1  0
 19 20  1  0
 20 21  1  0
 21 22  1  0
 22 23  1  0
 23 24  1  0
  8 25  2  0
 25  4  1  0
 16 10  1  0
 17 12  1  0
 24 19  1  0
M  END
>  <pIC50>  (608) 
5.74

>  <ChEMBL_ID>  (608) 
CHEMBL1258279

>  <document_journal>  (608) 
Bioorg. Med. Chem. Lett.

>  <bao_endpoint>  (608) 
BAO_0000190

>  <potential_duplicate>  (608) 
False

>  <uo_units>  (608) 
UO_0000065

>  <canonical_smiles>  (608) 
NC(=O)c1cccc(O[C@@H]2C[C@H]3CC[C@@H](C2)N3CC4CCCCC4)c1

>  <parent_molecule_chembl_id>  (608) 
CHEMBL1258279

>  <assay_type>  (608) 
F

>  <src_id>  (608) 
1

>  <ligand_efficiency>  (608) 
None

>  <standard_flag>  (608) 
True

>  <molecule_chembl_id>  (608) 
CHEMBL1258279

>  <target_organism>  (608) 
Homo sapiens

>  <standard_units>  (608) 
nM

>  <record_id>  (608) 
963243

>  <document_chembl_id>  (608) 
CHEMBL1255514

>  <bao_format>  (608) 
BAO_0000019

>  <data_validity_description>  (608) 
None

>  <activity_id>  (608) 
3497814

>  <standard_type>  (608) 
IC50

>  <target_chembl_id>  (608) 
CHEMBL233

>  <data_validity_comment>  (608) 
None

>  <published_value>  (608) 
1826

>  <document_year>  (608) 
2010

>  <target_pref_name>  (608) 
Mu opioid receptor

>  <assay_chembl_id>  (608) 
CHEMBL1259357

>  <standard_relation>  (608) 
=

>  <assay_description>  (608) 
Antagonist activity at human mu opioid receptor assessed as inhibition of DAMGO-stimulated [35S]GTPgammaS binding

>  <published_relation>  (608) 
=

>  <standard_value>  (608) 
1826

>  <qudt_units>  (608) 
http://www.openphacts.org/units/Nanomolar

>  <target_tax_id>  (608) 
9606

>  <bao_label>  (608) 
assay format

>  <published_units>  (608) 
nM

>  <pchembl_value>  (608) 
5.74

>  <published_type>  (608) 
IC50

>  <activity_comment>  (608) 
None

$$$$

     RDKit          

 28 32  0  0  0  0  0  0  0  0999 V2000
    0.0000    0.0000    0.0000 N   0  0  0  0  0  0  0  0  0  0  0  0
    0.0000    0.0000    0.0000 C   0  0  0  0  0  0  0  0  0  0  0  0
    0.0000    0.0000    0.0000 O   0  0  0  0  0  0  0  0  0  0  0  0
    0.0000    0.0000    0.0000 C   0  0  0  0  0  0  0  0  0  0  0  0
    0.0000    0.0000    0.0000 C   0  0  0  0  0  0  0  0  0  0  0  0
    0.0000    0.0000    0.0000 C   0  0  0  0  0  0  0  0  0  0  0  0
    0.0000    0.0000    0.0000 C   0  0  0  0  0  0  0  0  0  0  0  0
    0.0000    0.0000    0.0000 C   0  0  0  0  0  0  0  0  0  0  0  0
    0.0000    0.0000    0.0000 O   0  0  0  0  0  0  0  0  0  0  0  0
    0.0000    0.0000    0.0000 C   0  0  0  0  0  0  0  0  0  0  0  0
    0.0000    0.0000    0.0000 C   0  0  0  0  0  0  0  0  0  0  0  0
    0.0000    0.0000    0.0000 C   0  0  0  0  0  0  0  0  0  0  0  0
    0.0000    0.0000    0.0000 C   0  0  0  0  0  0  0  0  0  0  0  0
    0.0000    0.0000    0.0000 C   0  0  0  0  0  0  0  0  0  0  0  0
    0.0000    0.0000    0.0000 C   0  0  0  0  0  0  0  0  0  0  0  0
    0.0000    0.0000    0.0000 C   0  0  0  0  0  0  0  0  0  0  0  0
    0.0000    0.0000    0.0000 N   0  0  0  0  0  0  0  0  0  0  0  0
    0.0000    0.0000    0.0000 C   0  0  0  0  0  0  0  0  0  0  0  0
    0.0000    0.0000    0.0000 C   0  0  0  0  0  0  0  0  0  0  0  0
    0.0000    0.0000    0.0000 C   0  0  0  0  0  0  0  0  0  0  0  0
    0.0000    0.0000    0.0000 C   0  0  0  0  0  0  0  0  0  0  0  0
    0.0000    0.0000    0.0000 C   0  0  0  0  0  0  0  0  0  0  0  0
    0.0000    0.0000    0.0000 O   0  0  0  0  0  0  0  0  0  0  0  0
    0.0000    0.0000    0.0000 C   0  0  0  0  0  0  0  0  0  0  0  0
    0.0000    0.0000    0.0000 O   0  0  0  0  0  0  0  0  0  0  0  0
    0.0000    0.0000    0.0000 C   0  0  0  0  0  0  0  0  0  0  0  0
    0.0000    0.0000    0.0000 C   0  0  0  0  0  0  0  0  0  0  0  0
    0.0000    0.0000    0.0000 C   0  0  0  0  0  0  0  0  0  0  0  0
  1  2  1  0
  2  3  2  0
  2  4  1  0
  4  5  2  0
  5  6  1  0
  6  7  2  0
  7  8  1  0
  8  9  1  0
  9 10  1  0
 10 11  1  0
 11 12  1  0
 12 13  1  0
 13 14  1  0
 14 15  1  0
 15 16  1  0
 15 17  1  0
 17 18  1  0
 18 19  1  0
 19 20  2  0
 20 21  1  0
 21 22  2  0
 22 23  1  0
 23 24  1  0
 24 25  1  0
 25 26  1  0
 26 27  2  0
  8 28  2  0
 28  4  1  0
 16 10  1  0
 17 12  1  0
 27 19  1  0
 26 22  1  0
M  END
>  <pIC50>  (609) 
6.51

>  <ChEMBL_ID>  (609) 
CHEMBL1258280

>  <document_journal>  (609) 
Bioorg. Med. Chem. Lett.

>  <bao_endpoint>  (609) 
BAO_0000190

>  <potential_duplicate>  (609) 
False

>  <uo_units>  (609) 
UO_0000065

>  <canonical_smiles>  (609) 
NC(=O)c1cccc(O[C@@H]2C[C@H]3CC[C@@H](C2)N3Cc4ccc5OCOc5c4)c1

>  <parent_molecule_chembl_id>  (609) 
CHEMBL1258280

>  <assay_type>  (609) 
F

>  <src_id>  (609) 
1

>  <ligand_efficiency>  (609) 
None

>  <standard_flag>  (609) 
True

>  <molecule_chembl_id>  (609) 
CHEMBL1258280

>  <target_organism>  (609) 
Homo sapiens

>  <standard_units>  (609) 
nM

>  <record_id>  (609) 
963244

>  <document_chembl_id>  (609) 
CHEMBL1255514

>  <bao_format>  (609) 
BAO_0000019

>  <data_validity_description>  (609) 
None

>  <activity_id>  (609) 
3497815

>  <standard_type>  (609) 
IC50

>  <target_chembl_id>  (609) 
CHEMBL233

>  <data_validity_comment>  (609) 
None

>  <published_value>  (609) 
307

>  <document_year>  (609) 
2010

>  <target_pref_name>  (609) 
Mu opioid receptor

>  <assay_chembl_id>  (609) 
CHEMBL1259357

>  <standard_relation>  (609) 
=

>  <assay_description>  (609) 
Antagonist activity at human mu opioid receptor assessed as inhibition of DAMGO-stimulated [35S]GTPgammaS binding

>  <published_relation>  (609) 
=

>  <standard_value>  (609) 
307

>  <qudt_units>  (609) 
http://www.openphacts.org/units/Nanomolar

>  <target_tax_id>  (609) 
9606

>  <bao_label>  (609) 
assay format

>  <published_units>  (609) 
nM

>  <pchembl_value>  (609) 
6.51

>  <published_type>  (609) 
IC50

>  <activity_comment>  (609) 
None

$$$$

     RDKit          

 30 33  0  0  0  0  0  0  0  0999 V2000
    0.0000    0.0000    0.0000 C   0  0  0  0  0  0  0  0  0  0  0  0
    0.0000    0.0000    0.0000 S   0  0  0  0  0  0  0  0  0  0  0  0
    0.0000    0.0000    0.0000 O   0  0  0  0  0  0  0  0  0  0  0  0
    0.0000    0.0000    0.0000 O   0  0  0  0  0  0  0  0  0  0  0  0
    0.0000    0.0000    0.0000 C   0  0  0  0  0  0  0  0  0  0  0  0
    0.0000    0.0000    0.0000 C   0  0  0  0  0  0  0  0  0  0  0  0
    0.0000    0.0000    0.0000 C   0  0  0  0  0  0  0  0  0  0  0  0
    0.0000    0.0000    0.0000 C   0  0  0  0  0  0  0  0  0  0  0  0
    0.0000    0.0000    0.0000 C   0  0  0  0  0  0  0  0  0  0  0  0
    0.0000    0.0000    0.0000 C   0  0  0  0  0  0  0  0  0  0  0  0
    0.0000    0.0000    0.0000 N   0  0  0  0  0  0  0  0  0  0  0  0
    0.0000    0.0000    0.0000 C   0  0  0  0  0  0  0  0  0  0  0  0
    0.0000    0.0000    0.0000 C   0  0  0  0  0  0  0  0  0  0  0  0
    0.0000    0.0000    0.0000 C   0  0  0  0  0  0  0  0  0  0  0  0
    0.0000    0.0000    0.0000 C   0  0  0  0  0  0  0  0  0  0  0  0
    0.0000    0.0000    0.0000 C   0  0  0  0  0  0  0  0  0  0  0  0
    0.0000    0.0000    0.0000 C   0  0  0  0  0  0  0  0  0  0  0  0
    0.0000    0.0000    0.0000 C   0  0  0  0  0  0  0  0  0  0  0  0
    0.0000    0.0000    0.0000 O   0  0  0  0  0  0  0  0  0  0  0  0
    0.0000    0.0000    0.0000 C   0  0  0  0  0  0  0  0  0  0  0  0
    0.0000    0.0000    0.0000 C   0  0  0  0  0  0  0  0  0  0  0  0
    0.0000    0.0000    0.0000 C   0  0  0  0  0  0  0  0  0  0  0  0
    0.0000    0.0000    0.0000 C   0  0  0  0  0  0  0  0  0  0  0  0
    0.0000    0.0000    0.0000 C   0  0  0  0  0  0  0  0  0  0  0  0
    0.0000    0.0000    0.0000 C   0  0  0  0  0  0  0  0  0  0  0  0
    0.0000    0.0000    0.0000 C   0  0  0  0  0  0  0  0  0  0  0  0
    0.0000    0.0000    0.0000 O   0  0  0  0  0  0  0  0  0  0  0  0
    0.0000    0.0000    0.0000 N   0  0  0  0  0  0  0  0  0  0  0  0
    0.0000    0.0000    0.0000 C   0  0  0  0  0  0  0  0  0  0  0  0
    0.0000    0.0000    0.0000 C   0  0  0  0  0  0  0  0  0  0  0  0
  1  2  1  0
  2  3  2  0
  2  4  2  0
  2  5  1  0
  5  6  1  0
  6  7  2  0
  7  8  1  0
  8  9  2  0
  9 10  1  0
 10 11  1  0
 11 12  1  0
 12 13  1  0
 13 14  1  0
 14 15  1  0
 15 16  1  0
 16 17  1  0
 17 18  1  0
 17 19  1  0
 19 20  1  0
 20 21  2  0
 21 22  1  0
 22 23  2  0
 23 24  1  0
 24 25  2  0
 24 26  1  0
 26 27  2  0
 26 28  1  0
  9 29  1  0
 29 30  2  0
 30  6  1  0
 15 11  1  0
 18 12  1  0
 25 20  1  0
M  END
>  <pIC50>  (610) 
6.24

>  <ChEMBL_ID>  (610) 
CHEMBL1258391

>  <document_journal>  (610) 
Bioorg. Med. Chem. Lett.

>  <bao_endpoint>  (610) 
BAO_0000190

>  <potential_duplicate>  (610) 
False

>  <uo_units>  (610) 
UO_0000065

>  <canonical_smiles>  (610) 
CS(=O)(=O)Cc1ccc(CN2[C@@H]3CC[C@H]2C[C@@H](C3)Oc4cccc(c4)C(=O)N)cc1

>  <parent_molecule_chembl_id>  (610) 
CHEMBL1258391

>  <assay_type>  (610) 
F

>  <src_id>  (610) 
1

>  <ligand_efficiency>  (610) 
None

>  <standard_flag>  (610) 
True

>  <molecule_chembl_id>  (610) 
CHEMBL1258391

>  <target_organism>  (610) 
Homo sapiens

>  <standard_units>  (610) 
nM

>  <record_id>  (610) 
963366

>  <document_chembl_id>  (610) 
CHEMBL1255514

>  <bao_format>  (610) 
BAO_0000019

>  <data_validity_description>  (610) 
None

>  <activity_id>  (610) 
3497816

>  <standard_type>  (610) 
IC50

>  <target_chembl_id>  (610) 
CHEMBL233

>  <data_validity_comment>  (610) 
None

>  <published_value>  (610) 
576

>  <document_year>  (610) 
2010

>  <target_pref_name>  (610) 
Mu opioid receptor

>  <assay_chembl_id>  (610) 
CHEMBL1259357

>  <standard_relation>  (610) 
=

>  <assay_description>  (610) 
Antagonist activity at human mu opioid receptor assessed as inhibition of DAMGO-stimulated [35S]GTPgammaS binding

>  <published_relation>  (610) 
=

>  <standard_value>  (610) 
576

>  <qudt_units>  (610) 
http://www.openphacts.org/units/Nanomolar

>  <target_tax_id>  (610) 
9606

>  <bao_label>  (610) 
assay format

>  <published_units>  (610) 
nM

>  <pchembl_value>  (610) 
6.24

>  <published_type>  (610) 
IC50

>  <activity_comment>  (610) 
None

$$$$

     RDKit          

 25 28  0  0  0  0  0  0  0  0999 V2000
    0.0000    0.0000    0.0000 C   0  0  0  0  0  0  0  0  0  0  0  0
    0.0000    0.0000    0.0000 N   0  0  0  0  0  0  0  0  0  0  0  0
    0.0000    0.0000    0.0000 C   0  0  0  0  0  0  0  0  0  0  0  0
    0.0000    0.0000    0.0000 C   0  0  0  0  0  0  0  0  0  0  0  0
    0.0000    0.0000    0.0000 C   0  0  0  0  0  0  0  0  0  0  0  0
    0.0000    0.0000    0.0000 N   0  0  0  0  0  0  0  0  0  0  0  0
    0.0000    0.0000    0.0000 C   0  0  0  0  0  0  0  0  0  0  0  0
    0.0000    0.0000    0.0000 C   0  0  0  0  0  0  0  0  0  0  0  0
    0.0000    0.0000    0.0000 C   0  0  0  0  0  0  0  0  0  0  0  0
    0.0000    0.0000    0.0000 C   0  0  0  0  0  0  0  0  0  0  0  0
    0.0000    0.0000    0.0000 C   0  0  0  0  0  0  0  0  0  0  0  0
    0.0000    0.0000    0.0000 C   0  0  0  0  0  0  0  0  0  0  0  0
    0.0000    0.0000    0.0000 C   0  0  0  0  0  0  0  0  0  0  0  0
    0.0000    0.0000    0.0000 O   0  0  0  0  0  0  0  0  0  0  0  0
    0.0000    0.0000    0.0000 C   0  0  0  0  0  0  0  0  0  0  0  0
    0.0000    0.0000    0.0000 C   0  0  0  0  0  0  0  0  0  0  0  0
    0.0000    0.0000    0.0000 C   0  0  0  0  0  0  0  0  0  0  0  0
    0.0000    0.0000    0.0000 C   0  0  0  0  0  0  0  0  0  0  0  0
    0.0000    0.0000    0.0000 C   0  0  0  0  0  0  0  0  0  0  0  0
    0.0000    0.0000    0.0000 C   0  0  0  0  0  0  0  0  0  0  0  0
    0.0000    0.0000    0.0000 C   0  0  0  0  0  0  0  0  0  0  0  0
    0.0000    0.0000    0.0000 O   0  0  0  0  0  0  0  0  0  0  0  0
    0.0000    0.0000    0.0000 N   0  0  0  0  0  0  0  0  0  0  0  0
    0.0000    0.0000    0.0000 C   0  0  0  0  0  0  0  0  0  0  0  0
    0.0000    0.0000    0.0000 N   0  0  0  0  0  0  0  0  0  0  0  0
  1  2  1  0
  2  3  1  0
  3  4  2  0
  4  5  1  0
  5  6  1  0
  6  7  1  0
  7  8  1  0
  8  9  1  0
  9 10  1  0
 10 11  1  0
 11 12  1  0
 12 13  1  0
 12 14  1  0
 14 15  1  0
 15 16  2  0
 16 17  1  0
 17 18  2  0
 18 19  1  0
 19 20  2  0
 19 21  1  0
 21 22  2  0
 21 23  1  0
  4 24  1  0
 24 25  2  0
 25  2  1  0
 10  6  1  0
 13  7  1  0
 20 15  1  0
M  END
>  <pIC50>  (611) 
5.03

>  <ChEMBL_ID>  (611) 
CHEMBL1258392

>  <document_journal>  (611) 
Bioorg. Med. Chem. Lett.

>  <bao_endpoint>  (611) 
BAO_0000190

>  <potential_duplicate>  (611) 
False

>  <uo_units>  (611) 
UO_0000065

>  <canonical_smiles>  (611) 
Cn1cc(CN2[C@@H]3CC[C@H]2C[C@@H](C3)Oc4cccc(c4)C(=O)N)cn1

>  <parent_molecule_chembl_id>  (611) 
CHEMBL1258392

>  <assay_type>  (611) 
F

>  <src_id>  (611) 
1

>  <ligand_efficiency>  (611) 
None

>  <standard_flag>  (611) 
True

>  <molecule_chembl_id>  (611) 
CHEMBL1258392

>  <target_organism>  (611) 
Homo sapiens

>  <standard_units>  (611) 
nM

>  <record_id>  (611) 
963367

>  <document_chembl_id>  (611) 
CHEMBL1255514

>  <bao_format>  (611) 
BAO_0000019

>  <data_validity_description>  (611) 
None

>  <activity_id>  (611) 
3497817

>  <standard_type>  (611) 
IC50

>  <target_chembl_id>  (611) 
CHEMBL233

>  <data_validity_comment>  (611) 
None

>  <published_value>  (611) 
9432

>  <document_year>  (611) 
2010

>  <target_pref_name>  (611) 
Mu opioid receptor

>  <assay_chembl_id>  (611) 
CHEMBL1259357

>  <standard_relation>  (611) 
=

>  <assay_description>  (611) 
Antagonist activity at human mu opioid receptor assessed as inhibition of DAMGO-stimulated [35S]GTPgammaS binding

>  <published_relation>  (611) 
=

>  <standard_value>  (611) 
9432

>  <qudt_units>  (611) 
http://www.openphacts.org/units/Nanomolar

>  <target_tax_id>  (611) 
9606

>  <bao_label>  (611) 
assay format

>  <published_units>  (611) 
nM

>  <pchembl_value>  (611) 
5.03

>  <published_type>  (611) 
IC50

>  <activity_comment>  (611) 
None

$$$$

     RDKit          

 26 29  0  0  0  0  0  0  0  0999 V2000
    0.0000    0.0000    0.0000 N   0  0  0  0  0  0  0  0  0  0  0  0
    0.0000    0.0000    0.0000 C   0  0  0  0  0  0  0  0  0  0  0  0
    0.0000    0.0000    0.0000 O   0  0  0  0  0  0  0  0  0  0  0  0
    0.0000    0.0000    0.0000 C   0  0  0  0  0  0  0  0  0  0  0  0
    0.0000    0.0000    0.0000 C   0  0  0  0  0  0  0  0  0  0  0  0
    0.0000    0.0000    0.0000 C   0  0  0  0  0  0  0  0  0  0  0  0
    0.0000    0.0000    0.0000 C   0  0  0  0  0  0  0  0  0  0  0  0
    0.0000    0.0000    0.0000 C   0  0  0  0  0  0  0  0  0  0  0  0
    0.0000    0.0000    0.0000 O   0  0  0  0  0  0  0  0  0  0  0  0
    0.0000    0.0000    0.0000 C   0  0  0  0  0  0  0  0  0  0  0  0
    0.0000    0.0000    0.0000 C   0  0  0  0  0  0  0  0  0  0  0  0
    0.0000    0.0000    0.0000 C   0  0  0  0  0  0  0  0  0  0  0  0
    0.0000    0.0000    0.0000 C   0  0  0  0  0  0  0  0  0  0  0  0
    0.0000    0.0000    0.0000 C   0  0  0  0  0  0  0  0  0  0  0  0
    0.0000    0.0000    0.0000 C   0  0  0  0  0  0  0  0  0  0  0  0
    0.0000    0.0000    0.0000 C   0  0  0  0  0  0  0  0  0  0  0  0
    0.0000    0.0000    0.0000 N   0  0  0  0  0  0  0  0  0  0  0  0
    0.0000    0.0000    0.0000 C   0  0  0  0  0  0  0  0  0  0  0  0
    0.0000    0.0000    0.0000 C   0  0  0  0  0  0  0  0  0  0  0  0
    0.0000    0.0000    0.0000 O   0  0  0  0  0  0  0  0  0  0  0  0
    0.0000    0.0000    0.0000 N   0  0  0  0  0  0  0  0  0  0  0  0
    0.0000    0.0000    0.0000 C   0  0  0  0  0  0  0  0  0  0  0  0
    0.0000    0.0000    0.0000 C   0  0  0  0  0  0  0  0  0  0  0  0
    0.0000    0.0000    0.0000 C   0  0  0  0  0  0  0  0  0  0  0  0
    0.0000    0.0000    0.0000 C   0  0  0  0  0  0  0  0  0  0  0  0
    0.0000    0.0000    0.0000 C   0  0  0  0  0  0  0  0  0  0  0  0
  1  2  1  0
  2  3  2  0
  2  4  1  0
  4  5  2  0
  5  6  1  0
  6  7  2  0
  7  8  1  0
  8  9  1  0
  9 10  1  0
 10 11  1  0
 11 12  1  0
 12 13  1  0
 13 14  1  0
 14 15  1  0
 15 16  1  0
 15 17  1  0
 17 18  1  0
 18 19  1  0
 19 20  2  0
 19 21  1  0
 21 22  1  0
 22 23  1  0
 23 24  1  0
 24 25  1  0
  8 26  2  0
 26  4  1  0
 16 10  1  0
 17 12  1  0
 25 21  1  0
M  END
>  <pIC50>  (612) 
4.68

>  <ChEMBL_ID>  (612) 
CHEMBL1258502

>  <document_journal>  (612) 
Bioorg. Med. Chem. Lett.

>  <bao_endpoint>  (612) 
BAO_0000190

>  <potential_duplicate>  (612) 
False

>  <uo_units>  (612) 
UO_0000065

>  <canonical_smiles>  (612) 
NC(=O)c1cccc(O[C@@H]2C[C@H]3CC[C@@H](C2)N3CC(=O)N4CCCC4)c1

>  <parent_molecule_chembl_id>  (612) 
CHEMBL1258502

>  <assay_type>  (612) 
F

>  <src_id>  (612) 
1

>  <ligand_efficiency>  (612) 
None

>  <standard_flag>  (612) 
True

>  <molecule_chembl_id>  (612) 
CHEMBL1258502

>  <target_organism>  (612) 
Homo sapiens

>  <standard_units>  (612) 
nM

>  <record_id>  (612) 
963491

>  <document_chembl_id>  (612) 
CHEMBL1255514

>  <bao_format>  (612) 
BAO_0000019

>  <data_validity_description>  (612) 
None

>  <activity_id>  (612) 
3497818

>  <standard_type>  (612) 
IC50

>  <target_chembl_id>  (612) 
CHEMBL233

>  <data_validity_comment>  (612) 
None

>  <published_value>  (612) 
21090

>  <document_year>  (612) 
2010

>  <target_pref_name>  (612) 
Mu opioid receptor

>  <assay_chembl_id>  (612) 
CHEMBL1259357

>  <standard_relation>  (612) 
=

>  <assay_description>  (612) 
Antagonist activity at human mu opioid receptor assessed as inhibition of DAMGO-stimulated [35S]GTPgammaS binding

>  <published_relation>  (612) 
=

>  <standard_value>  (612) 
21090

>  <qudt_units>  (612) 
http://www.openphacts.org/units/Nanomolar

>  <target_tax_id>  (612) 
9606

>  <bao_label>  (612) 
assay format

>  <published_units>  (612) 
nM

>  <pchembl_value>  (612) 
4.68

>  <published_type>  (612) 
IC50

>  <activity_comment>  (612) 
None

$$$$

     RDKit          

 28 31  0  0  0  0  0  0  0  0999 V2000
    0.0000    0.0000    0.0000 N   0  0  0  0  0  0  0  0  0  0  0  0
    0.0000    0.0000    0.0000 C   0  0  0  0  0  0  0  0  0  0  0  0
    0.0000    0.0000    0.0000 O   0  0  0  0  0  0  0  0  0  0  0  0
    0.0000    0.0000    0.0000 C   0  0  0  0  0  0  0  0  0  0  0  0
    0.0000    0.0000    0.0000 C   0  0  0  0  0  0  0  0  0  0  0  0
    0.0000    0.0000    0.0000 C   0  0  0  0  0  0  0  0  0  0  0  0
    0.0000    0.0000    0.0000 C   0  0  0  0  0  0  0  0  0  0  0  0
    0.0000    0.0000    0.0000 C   0  0  0  0  0  0  0  0  0  0  0  0
    0.0000    0.0000    0.0000 O   0  0  0  0  0  0  0  0  0  0  0  0
    0.0000    0.0000    0.0000 C   0  0  0  0  0  0  0  0  0  0  0  0
    0.0000    0.0000    0.0000 C   0  0  0  0  0  0  0  0  0  0  0  0
    0.0000    0.0000    0.0000 C   0  0  0  0  0  0  0  0  0  0  0  0
    0.0000    0.0000    0.0000 C   0  0  0  0  0  0  0  0  0  0  0  0
    0.0000    0.0000    0.0000 C   0  0  0  0  0  0  0  0  0  0  0  0
    0.0000    0.0000    0.0000 C   0  0  0  0  0  0  0  0  0  0  0  0
    0.0000    0.0000    0.0000 C   0  0  0  0  0  0  0  0  0  0  0  0
    0.0000    0.0000    0.0000 N   0  0  0  0  0  0  0  0  0  0  0  0
    0.0000    0.0000    0.0000 C   0  0  0  0  0  0  0  0  0  0  0  0
    0.0000    0.0000    0.0000 C   0  0  0  0  0  0  0  0  0  0  0  0
    0.0000    0.0000    0.0000 O   0  0  0  0  0  0  0  0  0  0  0  0
    0.0000    0.0000    0.0000 N   0  0  0  0  0  0  0  0  0  0  0  0
    0.0000    0.0000    0.0000 C   0  0  0  0  0  0  0  0  0  0  0  0
    0.0000    0.0000    0.0000 C   0  0  0  0  0  0  0  0  0  0  0  0
    0.0000    0.0000    0.0000 C   0  0  0  0  0  0  0  0  0  0  0  0
    0.0000    0.0000    0.0000 C   0  0  0  0  0  0  0  0  0  0  0  0
    0.0000    0.0000    0.0000 C   0  0  0  0  0  0  0  0  0  0  0  0
    0.0000    0.0000    0.0000 C   0  0  0  0  0  0  0  0  0  0  0  0
    0.0000    0.0000    0.0000 C   0  0  0  0  0  0  0  0  0  0  0  0
  1  2  1  0
  2  3  2  0
  2  4  1  0
  4  5  2  0
  5  6  1  0
  6  7  2  0
  7  8  1  0
  8  9  1  0
  9 10  1  0
 10 11  1  0
 11 12  1  0
 12 13  1  0
 13 14  1  0
 14 15  1  0
 15 16  1  0
 15 17  1  0
 17 18  1  0
 18 19  1  0
 19 20  2  0
 19 21  1  0
 21 22  1  0
 22 23  2  0
 23 24  1  0
 24 25  2  0
 25 26  1  0
 26 27  2  0
  8 28  2  0
 28  4  1  0
 16 10  1  0
 17 12  1  0
 27 22  1  0
M  END
>  <pIC50>  (613) 
6.6

>  <ChEMBL_ID>  (613) 
CHEMBL1258503

>  <document_journal>  (613) 
Bioorg. Med. Chem. Lett.

>  <bao_endpoint>  (613) 
BAO_0000190

>  <potential_duplicate>  (613) 
False

>  <uo_units>  (613) 
UO_0000065

>  <canonical_smiles>  (613) 
NC(=O)c1cccc(O[C@@H]2C[C@H]3CC[C@@H](C2)N3CC(=O)Nc4ccccc4)c1

>  <parent_molecule_chembl_id>  (613) 
CHEMBL1258503

>  <assay_type>  (613) 
F

>  <src_id>  (613) 
1

>  <ligand_efficiency>  (613) 
None

>  <standard_flag>  (613) 
True

>  <molecule_chembl_id>  (613) 
CHEMBL1258503

>  <target_organism>  (613) 
Homo sapiens

>  <standard_units>  (613) 
nM

>  <record_id>  (613) 
963492

>  <document_chembl_id>  (613) 
CHEMBL1255514

>  <bao_format>  (613) 
BAO_0000019

>  <data_validity_description>  (613) 
None

>  <activity_id>  (613) 
3497819

>  <standard_type>  (613) 
IC50

>  <target_chembl_id>  (613) 
CHEMBL233

>  <data_validity_comment>  (613) 
None

>  <published_value>  (613) 
253

>  <document_year>  (613) 
2010

>  <target_pref_name>  (613) 
Mu opioid receptor

>  <assay_chembl_id>  (613) 
CHEMBL1259357

>  <standard_relation>  (613) 
=

>  <assay_description>  (613) 
Antagonist activity at human mu opioid receptor assessed as inhibition of DAMGO-stimulated [35S]GTPgammaS binding

>  <published_relation>  (613) 
=

>  <standard_value>  (613) 
253

>  <qudt_units>  (613) 
http://www.openphacts.org/units/Nanomolar

>  <target_tax_id>  (613) 
9606

>  <bao_label>  (613) 
assay format

>  <published_units>  (613) 
nM

>  <pchembl_value>  (613) 
6.6

>  <published_type>  (613) 
IC50

>  <activity_comment>  (613) 
None

$$$$

     RDKit          

 26 29  0  0  0  0  0  0  0  0999 V2000
    0.0000    0.0000    0.0000 C   0  0  0  0  0  0  0  0  0  0  0  0
    0.0000    0.0000    0.0000 C   0  0  0  0  0  0  0  0  0  0  0  0
    0.0000    0.0000    0.0000 N   0  0  0  0  0  0  0  0  0  0  0  0
    0.0000    0.0000    0.0000 C   0  0  0  0  0  0  0  0  0  0  0  0
    0.0000    0.0000    0.0000 C   0  0  0  0  0  0  0  0  0  0  0  0
    0.0000    0.0000    0.0000 C   0  0  0  0  0  0  0  0  0  0  0  0
    0.0000    0.0000    0.0000 C   0  0  0  0  0  0  0  0  0  0  0  0
    0.0000    0.0000    0.0000 C   0  0  0  0  0  0  0  0  0  0  0  0
    0.0000    0.0000    0.0000 C   0  0  0  0  0  0  0  0  0  0  0  0
    0.0000    0.0000    0.0000 C   0  0  0  0  0  0  0  0  0  0  0  0
    0.0000    0.0000    0.0000 O   0  0  0  0  0  0  0  0  0  0  0  0
    0.0000    0.0000    0.0000 C   0  0  0  0  0  0  0  0  0  0  0  0
    0.0000    0.0000    0.0000 C   0  0  0  0  0  0  0  0  0  0  0  0
    0.0000    0.0000    0.0000 C   0  0  0  0  0  0  0  0  0  0  0  0
    0.0000    0.0000    0.0000 C   0  0  0  0  0  0  0  0  0  0  0  0
    0.0000    0.0000    0.0000 C   0  0  0  0  0  0  0  0  0  0  0  0
    0.0000    0.0000    0.0000 C   0  0  0  0  0  0  0  0  0  0  0  0
    0.0000    0.0000    0.0000 C   0  0  0  0  0  0  0  0  0  0  0  0
    0.0000    0.0000    0.0000 O   0  0  0  0  0  0  0  0  0  0  0  0
    0.0000    0.0000    0.0000 N   0  0  0  0  0  0  0  0  0  0  0  0
    0.0000    0.0000    0.0000 C   0  0  0  0  0  0  0  0  0  0  0  0
    0.0000    0.0000    0.0000 C   0  0  0  0  0  0  0  0  0  0  0  0
    0.0000    0.0000    0.0000 C   0  0  0  0  0  0  0  0  0  0  0  0
    0.0000    0.0000    0.0000 C   0  0  0  0  0  0  0  0  0  0  0  0
    0.0000    0.0000    0.0000 C   0  0  0  0  0  0  0  0  0  0  0  0
    0.0000    0.0000    0.0000 C   0  0  0  0  0  0  0  0  0  0  0  0
  1  2  1  0
  2  3  1  0
  3  4  1  0
  4  5  1  0
  5  6  1  0
  6  7  1  0
  7  8  1  0
  8  9  1  0
  9 10  1  0
  9 11  1  0
 11 12  1  0
 12 13  2  0
 13 14  1  0
 14 15  2  0
 15 16  1  0
 16 17  2  0
 16 18  1  0
 18 19  2  0
 18 20  1  0
  2 21  1  0
 21 22  2  0
 22 23  1  0
 23 24  2  0
 24 25  1  0
 25 26  2  0
  7  3  1  0
 10  4  1  0
 17 12  1  0
 26 21  1  0
M  END
>  <pIC50>  (614) 
4.7

>  <ChEMBL_ID>  (614) 
CHEMBL1258615

>  <document_journal>  (614) 
Bioorg. Med. Chem. Lett.

>  <bao_endpoint>  (614) 
BAO_0000190

>  <potential_duplicate>  (614) 
False

>  <uo_units>  (614) 
UO_0000065

>  <canonical_smiles>  (614) 
CC(N1[C@@H]2CC[C@H]1C[C@@H](C2)Oc3cccc(c3)C(=O)N)c4ccccc4

>  <parent_molecule_chembl_id>  (614) 
CHEMBL1258615

>  <assay_type>  (614) 
F

>  <src_id>  (614) 
1

>  <ligand_efficiency>  (614) 
None

>  <standard_flag>  (614) 
True

>  <molecule_chembl_id>  (614) 
CHEMBL1258615

>  <target_organism>  (614) 
Homo sapiens

>  <standard_units>  (614) 
nM

>  <record_id>  (614) 
963620

>  <document_chembl_id>  (614) 
CHEMBL1255514

>  <bao_format>  (614) 
BAO_0000019

>  <data_validity_description>  (614) 
None

>  <activity_id>  (614) 
3497820

>  <standard_type>  (614) 
IC50

>  <target_chembl_id>  (614) 
CHEMBL233

>  <data_validity_comment>  (614) 
None

>  <published_value>  (614) 
19837

>  <document_year>  (614) 
2010

>  <target_pref_name>  (614) 
Mu opioid receptor

>  <assay_chembl_id>  (614) 
CHEMBL1259357

>  <standard_relation>  (614) 
=

>  <assay_description>  (614) 
Antagonist activity at human mu opioid receptor assessed as inhibition of DAMGO-stimulated [35S]GTPgammaS binding

>  <published_relation>  (614) 
=

>  <standard_value>  (614) 
19837

>  <qudt_units>  (614) 
http://www.openphacts.org/units/Nanomolar

>  <target_tax_id>  (614) 
9606

>  <bao_label>  (614) 
assay format

>  <published_units>  (614) 
nM

>  <pchembl_value>  (614) 
4.7

>  <published_type>  (614) 
IC50

>  <activity_comment>  (614) 
None

$$$$

     RDKit          

 26 29  0  0  0  0  0  0  0  0999 V2000
    0.0000    0.0000    0.0000 C   0  0  0  0  0  0  0  0  0  0  0  0
    0.0000    0.0000    0.0000 C   0  0  0  0  0  0  0  0  0  0  0  0
    0.0000    0.0000    0.0000 N   0  0  0  0  0  0  0  0  0  0  0  0
    0.0000    0.0000    0.0000 C   0  0  0  0  0  0  0  0  0  0  0  0
    0.0000    0.0000    0.0000 C   0  0  0  0  0  0  0  0  0  0  0  0
    0.0000    0.0000    0.0000 C   0  0  0  0  0  0  0  0  0  0  0  0
    0.0000    0.0000    0.0000 C   0  0  0  0  0  0  0  0  0  0  0  0
    0.0000    0.0000    0.0000 C   0  0  0  0  0  0  0  0  0  0  0  0
    0.0000    0.0000    0.0000 C   0  0  0  0  0  0  0  0  0  0  0  0
    0.0000    0.0000    0.0000 C   0  0  0  0  0  0  0  0  0  0  0  0
    0.0000    0.0000    0.0000 O   0  0  0  0  0  0  0  0  0  0  0  0
    0.0000    0.0000    0.0000 C   0  0  0  0  0  0  0  0  0  0  0  0
    0.0000    0.0000    0.0000 C   0  0  0  0  0  0  0  0  0  0  0  0
    0.0000    0.0000    0.0000 C   0  0  0  0  0  0  0  0  0  0  0  0
    0.0000    0.0000    0.0000 C   0  0  0  0  0  0  0  0  0  0  0  0
    0.0000    0.0000    0.0000 C   0  0  0  0  0  0  0  0  0  0  0  0
    0.0000    0.0000    0.0000 C   0  0  0  0  0  0  0  0  0  0  0  0
    0.0000    0.0000    0.0000 C   0  0  0  0  0  0  0  0  0  0  0  0
    0.0000    0.0000    0.0000 O   0  0  0  0  0  0  0  0  0  0  0  0
    0.0000    0.0000    0.0000 N   0  0  0  0  0  0  0  0  0  0  0  0
    0.0000    0.0000    0.0000 C   0  0  0  0  0  0  0  0  0  0  0  0
    0.0000    0.0000    0.0000 C   0  0  0  0  0  0  0  0  0  0  0  0
    0.0000    0.0000    0.0000 C   0  0  0  0  0  0  0  0  0  0  0  0
    0.0000    0.0000    0.0000 C   0  0  0  0  0  0  0  0  0  0  0  0
    0.0000    0.0000    0.0000 C   0  0  0  0  0  0  0  0  0  0  0  0
    0.0000    0.0000    0.0000 S   0  0  0  0  0  0  0  0  0  0  0  0
  1  2  1  0
  2  3  1  0
  3  4  1  0
  4  5  1  0
  5  6  1  0
  6  7  1  0
  7  8  1  0
  8  9  1  0
  9 10  1  0
  9 11  1  0
 11 12  1  0
 12 13  2  0
 13 14  1  0
 14 15  2  0
 15 16  1  0
 16 17  2  0
 16 18  1  0
 18 19  2  0
 18 20  1  0
  2 21  1  0
 21 22  2  0
 22 23  1  0
 23 24  2  0
 24 25  1  0
 24 26  1  0
  7  3  1  0
 10  4  1  0
 17 12  1  0
 26 21  1  0
M  END
>  <pIC50>  (615) 
5.07

>  <ChEMBL_ID>  (615) 
CHEMBL1258616

>  <document_journal>  (615) 
Bioorg. Med. Chem. Lett.

>  <bao_endpoint>  (615) 
BAO_0000190

>  <potential_duplicate>  (615) 
False

>  <uo_units>  (615) 
UO_0000065

>  <canonical_smiles>  (615) 
CC(N1[C@@H]2CC[C@H]1C[C@@H](C2)Oc3cccc(c3)C(=O)N)c4ccc(C)s4

>  <parent_molecule_chembl_id>  (615) 
CHEMBL1258616

>  <assay_type>  (615) 
F

>  <src_id>  (615) 
1

>  <ligand_efficiency>  (615) 
None

>  <standard_flag>  (615) 
True

>  <molecule_chembl_id>  (615) 
CHEMBL1258616

>  <target_organism>  (615) 
Homo sapiens

>  <standard_units>  (615) 
nM

>  <record_id>  (615) 
963621

>  <document_chembl_id>  (615) 
CHEMBL1255514

>  <bao_format>  (615) 
BAO_0000019

>  <data_validity_description>  (615) 
None

>  <activity_id>  (615) 
3497821

>  <standard_type>  (615) 
IC50

>  <target_chembl_id>  (615) 
CHEMBL233

>  <data_validity_comment>  (615) 
None

>  <published_value>  (615) 
8504

>  <document_year>  (615) 
2010

>  <target_pref_name>  (615) 
Mu opioid receptor

>  <assay_chembl_id>  (615) 
CHEMBL1259357

>  <standard_relation>  (615) 
=

>  <assay_description>  (615) 
Antagonist activity at human mu opioid receptor assessed as inhibition of DAMGO-stimulated [35S]GTPgammaS binding

>  <published_relation>  (615) 
=

>  <standard_value>  (615) 
8504

>  <qudt_units>  (615) 
http://www.openphacts.org/units/Nanomolar

>  <target_tax_id>  (615) 
9606

>  <bao_label>  (615) 
assay format

>  <published_units>  (615) 
nM

>  <pchembl_value>  (615) 
5.07

>  <published_type>  (615) 
IC50

>  <activity_comment>  (615) 
None

$$$$

     RDKit          

 27 30  0  0  0  0  0  0  0  0999 V2000
    0.0000    0.0000    0.0000 C   0  0  0  0  0  0  0  0  0  0  0  0
    0.0000    0.0000    0.0000 C   0  0  0  0  0  0  0  0  0  0  0  0
    0.0000    0.0000    0.0000 N   0  0  0  0  0  0  0  0  0  0  0  0
    0.0000    0.0000    0.0000 C   0  0  0  0  0  0  0  0  0  0  0  0
    0.0000    0.0000    0.0000 C   0  0  0  0  0  0  0  0  0  0  0  0
    0.0000    0.0000    0.0000 C   0  0  0  0  0  0  0  0  0  0  0  0
    0.0000    0.0000    0.0000 C   0  0  0  0  0  0  0  0  0  0  0  0
    0.0000    0.0000    0.0000 C   0  0  0  0  0  0  0  0  0  0  0  0
    0.0000    0.0000    0.0000 C   0  0  0  0  0  0  0  0  0  0  0  0
    0.0000    0.0000    0.0000 C   0  0  0  0  0  0  0  0  0  0  0  0
    0.0000    0.0000    0.0000 O   0  0  0  0  0  0  0  0  0  0  0  0
    0.0000    0.0000    0.0000 C   0  0  0  0  0  0  0  0  0  0  0  0
    0.0000    0.0000    0.0000 C   0  0  0  0  0  0  0  0  0  0  0  0
    0.0000    0.0000    0.0000 C   0  0  0  0  0  0  0  0  0  0  0  0
    0.0000    0.0000    0.0000 C   0  0  0  0  0  0  0  0  0  0  0  0
    0.0000    0.0000    0.0000 C   0  0  0  0  0  0  0  0  0  0  0  0
    0.0000    0.0000    0.0000 C   0  0  0  0  0  0  0  0  0  0  0  0
    0.0000    0.0000    0.0000 C   0  0  0  0  0  0  0  0  0  0  0  0
    0.0000    0.0000    0.0000 O   0  0  0  0  0  0  0  0  0  0  0  0
    0.0000    0.0000    0.0000 N   0  0  0  0  0  0  0  0  0  0  0  0
    0.0000    0.0000    0.0000 C   0  0  0  0  0  0  0  0  0  0  0  0
    0.0000    0.0000    0.0000 C   0  0  0  0  0  0  0  0  0  0  0  0
    0.0000    0.0000    0.0000 C   0  0  0  0  0  0  0  0  0  0  0  0
    0.0000    0.0000    0.0000 C   0  0  0  0  0  0  0  0  0  0  0  0
    0.0000    0.0000    0.0000 C   0  0  0  0  0  0  0  0  0  0  0  0
    0.0000    0.0000    0.0000 C   0  0  0  0  0  0  0  0  0  0  0  0
    0.0000    0.0000    0.0000 C   0  0  0  0  0  0  0  0  0  0  0  0
  1  2  1  0
  2  3  1  0
  3  4  1  0
  4  5  1  0
  5  6  1  0
  6  7  1  0
  7  8  1  0
  8  9  1  0
  9 10  1  0
  9 11  1  0
 11 12  1  0
 12 13  2  0
 13 14  1  0
 14 15  2  0
 15 16  1  0
 16 17  2  0
 16 18  1  0
 18 19  2  0
 18 20  1  0
  2 21  1  0
 21 22  2  0
 22 23  1  0
 23 24  2  0
 24 25  1  0
 25 26  2  0
 26 27  1  0
  7  3  1  0
 10  4  1  0
 17 12  1  0
 26 21  1  0
M  END
>  <pIC50>  (616) 
4.78

>  <ChEMBL_ID>  (616) 
CHEMBL1258724

>  <document_journal>  (616) 
Bioorg. Med. Chem. Lett.

>  <bao_endpoint>  (616) 
BAO_0000190

>  <potential_duplicate>  (616) 
False

>  <uo_units>  (616) 
UO_0000065

>  <canonical_smiles>  (616) 
CC(N1[C@@H]2CC[C@H]1C[C@@H](C2)Oc3cccc(c3)C(=O)N)c4ccccc4C

>  <parent_molecule_chembl_id>  (616) 
CHEMBL1258724

>  <assay_type>  (616) 
F

>  <src_id>  (616) 
1

>  <ligand_efficiency>  (616) 
None

>  <standard_flag>  (616) 
True

>  <molecule_chembl_id>  (616) 
CHEMBL1258724

>  <target_organism>  (616) 
Homo sapiens

>  <standard_units>  (616) 
nM

>  <record_id>  (616) 
963747

>  <document_chembl_id>  (616) 
CHEMBL1255514

>  <bao_format>  (616) 
BAO_0000019

>  <data_validity_description>  (616) 
None

>  <activity_id>  (616) 
3497822

>  <standard_type>  (616) 
IC50

>  <target_chembl_id>  (616) 
CHEMBL233

>  <data_validity_comment>  (616) 
None

>  <published_value>  (616) 
16785

>  <document_year>  (616) 
2010

>  <target_pref_name>  (616) 
Mu opioid receptor

>  <assay_chembl_id>  (616) 
CHEMBL1259357

>  <standard_relation>  (616) 
=

>  <assay_description>  (616) 
Antagonist activity at human mu opioid receptor assessed as inhibition of DAMGO-stimulated [35S]GTPgammaS binding

>  <published_relation>  (616) 
=

>  <standard_value>  (616) 
16785

>  <qudt_units>  (616) 
http://www.openphacts.org/units/Nanomolar

>  <target_tax_id>  (616) 
9606

>  <bao_label>  (616) 
assay format

>  <published_units>  (616) 
nM

>  <pchembl_value>  (616) 
4.78

>  <published_type>  (616) 
IC50

>  <activity_comment>  (616) 
None

$$$$

     RDKit          

 28 32  0  0  0  0  0  0  0  0999 V2000
    0.0000    0.0000    0.0000 N   0  0  0  0  0  0  0  0  0  0  0  0
    0.0000    0.0000    0.0000 C   0  0  0  0  0  0  0  0  0  0  0  0
    0.0000    0.0000    0.0000 O   0  0  0  0  0  0  0  0  0  0  0  0
    0.0000    0.0000    0.0000 C   0  0  0  0  0  0  0  0  0  0  0  0
    0.0000    0.0000    0.0000 C   0  0  0  0  0  0  0  0  0  0  0  0
    0.0000    0.0000    0.0000 C   0  0  0  0  0  0  0  0  0  0  0  0
    0.0000    0.0000    0.0000 C   0  0  0  0  0  0  0  0  0  0  0  0
    0.0000    0.0000    0.0000 C   0  0  0  0  0  0  0  0  0  0  0  0
    0.0000    0.0000    0.0000 O   0  0  0  0  0  0  0  0  0  0  0  0
    0.0000    0.0000    0.0000 C   0  0  0  0  0  0  0  0  0  0  0  0
    0.0000    0.0000    0.0000 C   0  0  0  0  0  0  0  0  0  0  0  0
    0.0000    0.0000    0.0000 C   0  0  0  0  0  0  0  0  0  0  0  0
    0.0000    0.0000    0.0000 C   0  0  0  0  0  0  0  0  0  0  0  0
    0.0000    0.0000    0.0000 C   0  0  0  0  0  0  0  0  0  0  0  0
    0.0000    0.0000    0.0000 C   0  0  0  0  0  0  0  0  0  0  0  0
    0.0000    0.0000    0.0000 C   0  0  0  0  0  0  0  0  0  0  0  0
    0.0000    0.0000    0.0000 N   0  0  0  0  0  0  0  0  0  0  0  0
    0.0000    0.0000    0.0000 C   0  0  0  0  0  0  0  0  0  0  0  0
    0.0000    0.0000    0.0000 C   0  0  0  0  0  0  0  0  0  0  0  0
    0.0000    0.0000    0.0000 C   0  0  0  0  0  0  0  0  0  0  0  0
    0.0000    0.0000    0.0000 C   0  0  0  0  0  0  0  0  0  0  0  0
    0.0000    0.0000    0.0000 C   0  0  0  0  0  0  0  0  0  0  0  0
    0.0000    0.0000    0.0000 C   0  0  0  0  0  0  0  0  0  0  0  0
    0.0000    0.0000    0.0000 C   0  0  0  0  0  0  0  0  0  0  0  0
    0.0000    0.0000    0.0000 C   0  0  0  0  0  0  0  0  0  0  0  0
    0.0000    0.0000    0.0000 C   0  0  0  0  0  0  0  0  0  0  0  0
    0.0000    0.0000    0.0000 C   0  0  0  0  0  0  0  0  0  0  0  0
    0.0000    0.0000    0.0000 C   0  0  0  0  0  0  0  0  0  0  0  0
  1  2  1  0
  2  3  2  0
  2  4  1  0
  4  5  2  0
  5  6  1  0
  6  7  2  0
  7  8  1  0
  8  9  1  0
  9 10  1  0
 10 11  1  0
 11 12  1  0
 12 13  1  0
 13 14  1  0
 14 15  1  0
 15 16  1  0
 15 17  1  0
 17 18  1  0
 18 19  1  0
 19 20  1  0
 20 21  1  0
 21 22  1  0
 22 23  2  0
 23 24  1  0
 24 25  2  0
 25 26  1  0
 26 27  2  0
  8 28  2  0
 28  4  1  0
 16 10  1  0
 17 12  1  0
 27 18  1  0
 27 22  1  0
M  END
>  <pIC50>  (617) 
4.64

>  <ChEMBL_ID>  (617) 
CHEMBL1258725

>  <document_journal>  (617) 
Bioorg. Med. Chem. Lett.

>  <bao_endpoint>  (617) 
BAO_0000190

>  <potential_duplicate>  (617) 
False

>  <uo_units>  (617) 
UO_0000065

>  <canonical_smiles>  (617) 
NC(=O)c1cccc(O[C@@H]2C[C@H]3CC[C@@H](C2)N3C4CCCc5ccccc45)c1

>  <parent_molecule_chembl_id>  (617) 
CHEMBL1258725

>  <assay_type>  (617) 
F

>  <src_id>  (617) 
1

>  <ligand_efficiency>  (617) 
None

>  <standard_flag>  (617) 
True

>  <molecule_chembl_id>  (617) 
CHEMBL1258725

>  <target_organism>  (617) 
Homo sapiens

>  <standard_units>  (617) 
nM

>  <record_id>  (617) 
963748

>  <document_chembl_id>  (617) 
CHEMBL1255514

>  <bao_format>  (617) 
BAO_0000019

>  <data_validity_description>  (617) 
None

>  <activity_id>  (617) 
3497823

>  <standard_type>  (617) 
IC50

>  <target_chembl_id>  (617) 
CHEMBL233

>  <data_validity_comment>  (617) 
None

>  <published_value>  (617) 
22696

>  <document_year>  (617) 
2010

>  <target_pref_name>  (617) 
Mu opioid receptor

>  <assay_chembl_id>  (617) 
CHEMBL1259357

>  <standard_relation>  (617) 
=

>  <assay_description>  (617) 
Antagonist activity at human mu opioid receptor assessed as inhibition of DAMGO-stimulated [35S]GTPgammaS binding

>  <published_relation>  (617) 
=

>  <standard_value>  (617) 
22696

>  <qudt_units>  (617) 
http://www.openphacts.org/units/Nanomolar

>  <target_tax_id>  (617) 
9606

>  <bao_label>  (617) 
assay format

>  <published_units>  (617) 
nM

>  <pchembl_value>  (617) 
4.64

>  <published_type>  (617) 
IC50

>  <activity_comment>  (617) 
None

$$$$

     RDKit          

 24 27  0  0  0  0  0  0  0  0999 V2000
    0.0000    0.0000    0.0000 N   0  0  0  0  0  0  0  0  0  0  0  0
    0.0000    0.0000    0.0000 C   0  0  0  0  0  0  0  0  0  0  0  0
    0.0000    0.0000    0.0000 O   0  0  0  0  0  0  0  0  0  0  0  0
    0.0000    0.0000    0.0000 C   0  0  0  0  0  0  0  0  0  0  0  0
    0.0000    0.0000    0.0000 C   0  0  0  0  0  0  0  0  0  0  0  0
    0.0000    0.0000    0.0000 C   0  0  0  0  0  0  0  0  0  0  0  0
    0.0000    0.0000    0.0000 C   0  0  0  0  0  0  0  0  0  0  0  0
    0.0000    0.0000    0.0000 C   0  0  0  0  0  0  0  0  0  0  0  0
    0.0000    0.0000    0.0000 O   0  0  0  0  0  0  0  0  0  0  0  0
    0.0000    0.0000    0.0000 C   0  0  0  0  0  0  0  0  0  0  0  0
    0.0000    0.0000    0.0000 C   0  0  0  0  0  0  0  0  0  0  0  0
    0.0000    0.0000    0.0000 C   0  0  0  0  0  0  0  0  0  0  0  0
    0.0000    0.0000    0.0000 C   0  0  0  0  0  0  0  0  0  0  0  0
    0.0000    0.0000    0.0000 C   0  0  0  0  0  0  0  0  0  0  0  0
    0.0000    0.0000    0.0000 C   0  0  0  0  0  0  0  0  0  0  0  0
    0.0000    0.0000    0.0000 C   0  0  0  0  0  0  0  0  0  0  0  0
    0.0000    0.0000    0.0000 N   0  0  0  0  0  0  0  0  0  0  0  0
    0.0000    0.0000    0.0000 C   0  0  0  0  0  0  0  0  0  0  0  0
    0.0000    0.0000    0.0000 C   0  0  0  0  0  0  0  0  0  0  0  0
    0.0000    0.0000    0.0000 C   0  0  0  0  0  0  0  0  0  0  0  0
    0.0000    0.0000    0.0000 C   0  0  0  0  0  0  0  0  0  0  0  0
    0.0000    0.0000    0.0000 C   0  0  0  0  0  0  0  0  0  0  0  0
    0.0000    0.0000    0.0000 C   0  0  0  0  0  0  0  0  0  0  0  0
    0.0000    0.0000    0.0000 C   0  0  0  0  0  0  0  0  0  0  0  0
  1  2  1  0
  2  3  2  0
  2  4  1  0
  4  5  2  0
  5  6  1  0
  6  7  2  0
  7  8  1  0
  8  9  1  0
  9 10  1  0
 10 11  1  0
 11 12  1  0
 12 13  1  0
 13 14  1  0
 14 15  1  0
 15 16  1  0
 15 17  1  0
 17 18  1  0
 18 19  1  0
 19 20  1  0
 20 21  1  0
 21 22  1  0
 22 23  1  0
  8 24  2  0
 24  4  1  0
 16 10  1  0
 17 12  1  0
 23 18  1  0
M  END
>  <pIC50>  (618) 
5.03

>  <ChEMBL_ID>  (618) 
CHEMBL1258845

>  <document_journal>  (618) 
Bioorg. Med. Chem. Lett.

>  <bao_endpoint>  (618) 
BAO_0000190

>  <potential_duplicate>  (618) 
False

>  <uo_units>  (618) 
UO_0000065

>  <canonical_smiles>  (618) 
NC(=O)c1cccc(O[C@@H]2C[C@H]3CC[C@@H](C2)N3C4CCCCC4)c1

>  <parent_molecule_chembl_id>  (618) 
CHEMBL1258845

>  <assay_type>  (618) 
F

>  <src_id>  (618) 
1

>  <ligand_efficiency>  (618) 
None

>  <standard_flag>  (618) 
True

>  <molecule_chembl_id>  (618) 
CHEMBL1258845

>  <target_organism>  (618) 
Homo sapiens

>  <standard_units>  (618) 
nM

>  <record_id>  (618) 
963874

>  <document_chembl_id>  (618) 
CHEMBL1255514

>  <bao_format>  (618) 
BAO_0000019

>  <data_validity_description>  (618) 
None

>  <activity_id>  (618) 
3497824

>  <standard_type>  (618) 
IC50

>  <target_chembl_id>  (618) 
CHEMBL233

>  <data_validity_comment>  (618) 
None

>  <published_value>  (618) 
9410

>  <document_year>  (618) 
2010

>  <target_pref_name>  (618) 
Mu opioid receptor

>  <assay_chembl_id>  (618) 
CHEMBL1259357

>  <standard_relation>  (618) 
=

>  <assay_description>  (618) 
Antagonist activity at human mu opioid receptor assessed as inhibition of DAMGO-stimulated [35S]GTPgammaS binding

>  <published_relation>  (618) 
=

>  <standard_value>  (618) 
9410

>  <qudt_units>  (618) 
http://www.openphacts.org/units/Nanomolar

>  <target_tax_id>  (618) 
9606

>  <bao_label>  (618) 
assay format

>  <published_units>  (618) 
nM

>  <pchembl_value>  (618) 
5.03

>  <published_type>  (618) 
IC50

>  <activity_comment>  (618) 
None

$$$$

     RDKit          

 26 29  0  0  0  0  0  0  0  0999 V2000
    0.0000    0.0000    0.0000 C   0  0  0  0  0  0  0  0  0  0  0  0
    0.0000    0.0000    0.0000 C   0  0  0  0  0  0  0  0  0  0  0  0
    0.0000    0.0000    0.0000 N   0  0  0  0  0  0  0  0  0  0  0  0
    0.0000    0.0000    0.0000 C   0  0  0  0  0  0  0  0  0  0  0  0
    0.0000    0.0000    0.0000 C   0  0  0  0  0  0  0  0  0  0  0  0
    0.0000    0.0000    0.0000 C   0  0  0  0  0  0  0  0  0  0  0  0
    0.0000    0.0000    0.0000 C   0  0  0  0  0  0  0  0  0  0  0  0
    0.0000    0.0000    0.0000 C   0  0  0  0  0  0  0  0  0  0  0  0
    0.0000    0.0000    0.0000 C   0  0  0  0  0  0  0  0  0  0  0  0
    0.0000    0.0000    0.0000 C   0  0  0  0  0  0  0  0  0  0  0  0
    0.0000    0.0000    0.0000 O   0  0  0  0  0  0  0  0  0  0  0  0
    0.0000    0.0000    0.0000 C   0  0  0  0  0  0  0  0  0  0  0  0
    0.0000    0.0000    0.0000 C   0  0  0  0  0  0  0  0  0  0  0  0
    0.0000    0.0000    0.0000 C   0  0  0  0  0  0  0  0  0  0  0  0
    0.0000    0.0000    0.0000 C   0  0  0  0  0  0  0  0  0  0  0  0
    0.0000    0.0000    0.0000 C   0  0  0  0  0  0  0  0  0  0  0  0
    0.0000    0.0000    0.0000 C   0  0  0  0  0  0  0  0  0  0  0  0
    0.0000    0.0000    0.0000 C   0  0  0  0  0  0  0  0  0  0  0  0
    0.0000    0.0000    0.0000 O   0  0  0  0  0  0  0  0  0  0  0  0
    0.0000    0.0000    0.0000 N   0  0  0  0  0  0  0  0  0  0  0  0
    0.0000    0.0000    0.0000 C   0  0  0  0  0  0  0  0  0  0  0  0
    0.0000    0.0000    0.0000 C   0  0  0  0  0  0  0  0  0  0  0  0
    0.0000    0.0000    0.0000 C   0  0  0  0  0  0  0  0  0  0  0  0
    0.0000    0.0000    0.0000 C   0  0  0  0  0  0  0  0  0  0  0  0
    0.0000    0.0000    0.0000 C   0  0  0  0  0  0  0  0  0  0  0  0
    0.0000    0.0000    0.0000 S   0  0  0  0  0  0  0  0  0  0  0  0
  1  2  1  0
  2  3  1  0
  3  4  1  0
  4  5  1  0
  5  6  1  0
  6  7  1  0
  7  8  1  0
  8  9  1  0
  9 10  1  0
  9 11  1  0
 11 12  1  0
 12 13  2  0
 13 14  1  0
 14 15  2  0
 15 16  1  0
 16 17  2  0
 16 18  1  0
 18 19  2  0
 18 20  1  0
  2 21  1  0
 21 22  2  0
 22 23  1  0
 23 24  2  0
 24 25  1  0
 24 26  1  0
  7  3  1  0
 10  4  1  0
 17 12  1  0
 26 21  1  0
M  END
>  <pIC50>  (619) 
5.57

>  <ChEMBL_ID>  (619) 
CHEMBL1257347

>  <document_journal>  (619) 
Bioorg. Med. Chem. Lett.

>  <bao_endpoint>  (619) 
BAO_0000190

>  <potential_duplicate>  (619) 
False

>  <uo_units>  (619) 
UO_0000065

>  <canonical_smiles>  (619) 
C[C@@H](N1[C@@H]2CC[C@H]1C[C@@H](C2)Oc3cccc(c3)C(=O)N)c4ccc(C)s4

>  <parent_molecule_chembl_id>  (619) 
CHEMBL1257347

>  <assay_type>  (619) 
F

>  <src_id>  (619) 
1

>  <ligand_efficiency>  (619) 
None

>  <standard_flag>  (619) 
True

>  <molecule_chembl_id>  (619) 
CHEMBL1257347

>  <target_organism>  (619) 
Homo sapiens

>  <standard_units>  (619) 
nM

>  <record_id>  (619) 
962222

>  <document_chembl_id>  (619) 
CHEMBL1255514

>  <bao_format>  (619) 
BAO_0000019

>  <data_validity_description>  (619) 
None

>  <activity_id>  (619) 
3497830

>  <standard_type>  (619) 
IC50

>  <target_chembl_id>  (619) 
CHEMBL233

>  <data_validity_comment>  (619) 
None

>  <published_value>  (619) 
2698

>  <document_year>  (619) 
2010

>  <target_pref_name>  (619) 
Mu opioid receptor

>  <assay_chembl_id>  (619) 
CHEMBL1259357

>  <standard_relation>  (619) 
=

>  <assay_description>  (619) 
Antagonist activity at human mu opioid receptor assessed as inhibition of DAMGO-stimulated [35S]GTPgammaS binding

>  <published_relation>  (619) 
=

>  <standard_value>  (619) 
2698

>  <qudt_units>  (619) 
http://www.openphacts.org/units/Nanomolar

>  <target_tax_id>  (619) 
9606

>  <bao_label>  (619) 
assay format

>  <published_units>  (619) 
nM

>  <pchembl_value>  (619) 
5.57

>  <published_type>  (619) 
IC50

>  <activity_comment>  (619) 
None

$$$$

     RDKit          

 28 31  0  0  0  0  0  0  0  0999 V2000
    0.0000    0.0000    0.0000 C   0  0  0  0  0  0  0  0  0  0  0  0
    0.0000    0.0000    0.0000 O   0  0  0  0  0  0  0  0  0  0  0  0
    0.0000    0.0000    0.0000 C   0  0  0  0  0  0  0  0  0  0  0  0
    0.0000    0.0000    0.0000 C   0  0  0  0  0  0  0  0  0  0  0  0
    0.0000    0.0000    0.0000 C   0  0  0  0  0  0  0  0  0  0  0  0
    0.0000    0.0000    0.0000 C   0  0  0  0  0  0  0  0  0  0  0  0
    0.0000    0.0000    0.0000 C   0  0  0  0  0  0  0  0  0  0  0  0
    0.0000    0.0000    0.0000 C   0  0  0  0  0  0  0  0  0  0  0  0
    0.0000    0.0000    0.0000 C   0  0  0  0  0  0  0  0  0  0  0  0
    0.0000    0.0000    0.0000 C   0  0  0  0  0  0  0  0  0  0  0  0
    0.0000    0.0000    0.0000 N   0  0  0  0  0  0  0  0  0  0  0  0
    0.0000    0.0000    0.0000 C   0  0  0  0  0  0  0  0  0  0  0  0
    0.0000    0.0000    0.0000 C   0  0  0  0  0  0  0  0  0  0  0  0
    0.0000    0.0000    0.0000 C   0  0  0  0  0  0  0  0  0  0  0  0
    0.0000    0.0000    0.0000 C   0  0  0  0  0  0  0  0  0  0  0  0
    0.0000    0.0000    0.0000 C   0  0  0  0  0  0  0  0  0  0  0  0
    0.0000    0.0000    0.0000 C   0  0  0  0  0  0  0  0  0  0  0  0
    0.0000    0.0000    0.0000 C   0  0  0  0  0  0  0  0  0  0  0  0
    0.0000    0.0000    0.0000 O   0  0  0  0  0  0  0  0  0  0  0  0
    0.0000    0.0000    0.0000 C   0  0  0  0  0  0  0  0  0  0  0  0
    0.0000    0.0000    0.0000 C   0  0  0  0  0  0  0  0  0  0  0  0
    0.0000    0.0000    0.0000 C   0  0  0  0  0  0  0  0  0  0  0  0
    0.0000    0.0000    0.0000 C   0  0  0  0  0  0  0  0  0  0  0  0
    0.0000    0.0000    0.0000 C   0  0  0  0  0  0  0  0  0  0  0  0
    0.0000    0.0000    0.0000 C   0  0  0  0  0  0  0  0  0  0  0  0
    0.0000    0.0000    0.0000 C   0  0  0  0  0  0  0  0  0  0  0  0
    0.0000    0.0000    0.0000 O   0  0  0  0  0  0  0  0  0  0  0  0
    0.0000    0.0000    0.0000 N   0  0  0  0  0  0  0  0  0  0  0  0
  1  2  1  0
  2  3  1  0
  3  4  2  0
  4  5  1  0
  5  6  2  0
  6  7  1  0
  7  8  2  0
  7  9  1  0
  9 10  1  0
  9 11  1  0
 11 12  1  0
 12 13  1  0
 13 14  1  0
 14 15  1  0
 15 16  1  0
 16 17  1  0
 17 18  1  0
 17 19  1  0
 19 20  1  0
 20 21  2  0
 21 22  1  0
 22 23  2  0
 23 24  1  0
 24 25  2  0
 24 26  1  0
 26 27  2  0
 26 28  1  0
  8  3  1  0
 15 11  1  0
 18 12  1  0
 25 20  1  0
M  END
>  <pIC50>  (620) 
5.98

>  <ChEMBL_ID>  (620) 
CHEMBL1257348

>  <document_journal>  (620) 
Bioorg. Med. Chem. Lett.

>  <bao_endpoint>  (620) 
BAO_0000190

>  <potential_duplicate>  (620) 
False

>  <uo_units>  (620) 
UO_0000065

>  <canonical_smiles>  (620) 
COc1cccc(c1)[C@@H](C)N2[C@@H]3CC[C@H]2C[C@@H](C3)Oc4cccc(c4)C(=O)N

>  <parent_molecule_chembl_id>  (620) 
CHEMBL1257348

>  <assay_type>  (620) 
F

>  <src_id>  (620) 
1

>  <ligand_efficiency>  (620) 
None

>  <standard_flag>  (620) 
True

>  <molecule_chembl_id>  (620) 
CHEMBL1257348

>  <target_organism>  (620) 
Homo sapiens

>  <standard_units>  (620) 
nM

>  <record_id>  (620) 
962223

>  <document_chembl_id>  (620) 
CHEMBL1255514

>  <bao_format>  (620) 
BAO_0000019

>  <data_validity_description>  (620) 
None

>  <activity_id>  (620) 
3497831

>  <standard_type>  (620) 
IC50

>  <target_chembl_id>  (620) 
CHEMBL233

>  <data_validity_comment>  (620) 
None

>  <published_value>  (620) 
1046

>  <document_year>  (620) 
2010

>  <target_pref_name>  (620) 
Mu opioid receptor

>  <assay_chembl_id>  (620) 
CHEMBL1259357

>  <standard_relation>  (620) 
=

>  <assay_description>  (620) 
Antagonist activity at human mu opioid receptor assessed as inhibition of DAMGO-stimulated [35S]GTPgammaS binding

>  <published_relation>  (620) 
=

>  <standard_value>  (620) 
1046

>  <qudt_units>  (620) 
http://www.openphacts.org/units/Nanomolar

>  <target_tax_id>  (620) 
9606

>  <bao_label>  (620) 
assay format

>  <published_units>  (620) 
nM

>  <pchembl_value>  (620) 
5.98

>  <published_type>  (620) 
IC50

>  <activity_comment>  (620) 
None

$$$$

     RDKit          

 27 30  0  0  0  0  0  0  0  0999 V2000
    0.0000    0.0000    0.0000 C   0  0  0  0  0  0  0  0  0  0  0  0
    0.0000    0.0000    0.0000 C   0  0  0  0  0  0  0  0  0  0  0  0
    0.0000    0.0000    0.0000 N   0  0  0  0  0  0  0  0  0  0  0  0
    0.0000    0.0000    0.0000 C   0  0  0  0  0  0  0  0  0  0  0  0
    0.0000    0.0000    0.0000 C   0  0  0  0  0  0  0  0  0  0  0  0
    0.0000    0.0000    0.0000 C   0  0  0  0  0  0  0  0  0  0  0  0
    0.0000    0.0000    0.0000 C   0  0  0  0  0  0  0  0  0  0  0  0
    0.0000    0.0000    0.0000 C   0  0  0  0  0  0  0  0  0  0  0  0
    0.0000    0.0000    0.0000 C   0  0  0  0  0  0  0  0  0  0  0  0
    0.0000    0.0000    0.0000 C   0  0  0  0  0  0  0  0  0  0  0  0
    0.0000    0.0000    0.0000 O   0  0  0  0  0  0  0  0  0  0  0  0
    0.0000    0.0000    0.0000 C   0  0  0  0  0  0  0  0  0  0  0  0
    0.0000    0.0000    0.0000 C   0  0  0  0  0  0  0  0  0  0  0  0
    0.0000    0.0000    0.0000 C   0  0  0  0  0  0  0  0  0  0  0  0
    0.0000    0.0000    0.0000 C   0  0  0  0  0  0  0  0  0  0  0  0
    0.0000    0.0000    0.0000 C   0  0  0  0  0  0  0  0  0  0  0  0
    0.0000    0.0000    0.0000 C   0  0  0  0  0  0  0  0  0  0  0  0
    0.0000    0.0000    0.0000 C   0  0  0  0  0  0  0  0  0  0  0  0
    0.0000    0.0000    0.0000 O   0  0  0  0  0  0  0  0  0  0  0  0
    0.0000    0.0000    0.0000 N   0  0  0  0  0  0  0  0  0  0  0  0
    0.0000    0.0000    0.0000 C   0  0  0  0  0  0  0  0  0  0  0  0
    0.0000    0.0000    0.0000 C   0  0  0  0  0  0  0  0  0  0  0  0
    0.0000    0.0000    0.0000 C   0  0  0  0  0  0  0  0  0  0  0  0
    0.0000    0.0000    0.0000 C   0  0  0  0  0  0  0  0  0  0  0  0
    0.0000    0.0000    0.0000 C   0  0  0  0  0  0  0  0  0  0  0  0
    0.0000    0.0000    0.0000 N   0  0  0  0  0  0  0  0  0  0  0  0
    0.0000    0.0000    0.0000 C   0  0  0  0  0  0  0  0  0  0  0  0
  1  2  1  0
  2  3  1  0
  3  4  1  0
  4  5  1  0
  5  6  1  0
  6  7  1  0
  7  8  1  0
  8  9  1  0
  9 10  1  0
  9 11  1  0
 11 12  1  0
 12 13  2  0
 13 14  1  0
 14 15  2  0
 15 16  1  0
 16 17  2  0
 16 18  1  0
 18 19  2  0
 18 20  1  0
  2 21  1  0
 21 22  2  0
 22 23  1  0
 23 24  2  0
 24 25  1  0
 24 26  1  0
 26 27  2  0
  7  3  1  0
 10  4  1  0
 17 12  1  0
 27 21  1  0
M  END
>  <pIC50>  (621) 
5.72

>  <ChEMBL_ID>  (621) 
CHEMBL1257458

>  <document_journal>  (621) 
Bioorg. Med. Chem. Lett.

>  <bao_endpoint>  (621) 
BAO_0000190

>  <potential_duplicate>  (621) 
False

>  <uo_units>  (621) 
UO_0000065

>  <canonical_smiles>  (621) 
C[C@@H](N1[C@@H]2CC[C@H]1C[C@@H](C2)Oc3cccc(c3)C(=O)N)c4ccc(C)nc4

>  <parent_molecule_chembl_id>  (621) 
CHEMBL1257458

>  <assay_type>  (621) 
F

>  <src_id>  (621) 
1

>  <ligand_efficiency>  (621) 
None

>  <standard_flag>  (621) 
True

>  <molecule_chembl_id>  (621) 
CHEMBL1257458

>  <target_organism>  (621) 
Homo sapiens

>  <standard_units>  (621) 
nM

>  <record_id>  (621) 
962348

>  <document_chembl_id>  (621) 
CHEMBL1255514

>  <bao_format>  (621) 
BAO_0000019

>  <data_validity_description>  (621) 
None

>  <activity_id>  (621) 
3497832

>  <standard_type>  (621) 
IC50

>  <target_chembl_id>  (621) 
CHEMBL233

>  <data_validity_comment>  (621) 
None

>  <published_value>  (621) 
1896

>  <document_year>  (621) 
2010

>  <target_pref_name>  (621) 
Mu opioid receptor

>  <assay_chembl_id>  (621) 
CHEMBL1259357

>  <standard_relation>  (621) 
=

>  <assay_description>  (621) 
Antagonist activity at human mu opioid receptor assessed as inhibition of DAMGO-stimulated [35S]GTPgammaS binding

>  <published_relation>  (621) 
=

>  <standard_value>  (621) 
1896

>  <qudt_units>  (621) 
http://www.openphacts.org/units/Nanomolar

>  <target_tax_id>  (621) 
9606

>  <bao_label>  (621) 
assay format

>  <published_units>  (621) 
nM

>  <pchembl_value>  (621) 
5.72

>  <published_type>  (621) 
IC50

>  <activity_comment>  (621) 
None

$$$$

     RDKit          

 27 30  0  0  0  0  0  0  0  0999 V2000
    0.0000    0.0000    0.0000 C   0  0  0  0  0  0  0  0  0  0  0  0
    0.0000    0.0000    0.0000 C   0  0  0  0  0  0  0  0  0  0  0  0
    0.0000    0.0000    0.0000 N   0  0  0  0  0  0  0  0  0  0  0  0
    0.0000    0.0000    0.0000 C   0  0  0  0  0  0  0  0  0  0  0  0
    0.0000    0.0000    0.0000 C   0  0  0  0  0  0  0  0  0  0  0  0
    0.0000    0.0000    0.0000 C   0  0  0  0  0  0  0  0  0  0  0  0
    0.0000    0.0000    0.0000 C   0  0  0  0  0  0  0  0  0  0  0  0
    0.0000    0.0000    0.0000 C   0  0  0  0  0  0  0  0  0  0  0  0
    0.0000    0.0000    0.0000 C   0  0  0  0  0  0  0  0  0  0  0  0
    0.0000    0.0000    0.0000 C   0  0  0  0  0  0  0  0  0  0  0  0
    0.0000    0.0000    0.0000 O   0  0  0  0  0  0  0  0  0  0  0  0
    0.0000    0.0000    0.0000 C   0  0  0  0  0  0  0  0  0  0  0  0
    0.0000    0.0000    0.0000 C   0  0  0  0  0  0  0  0  0  0  0  0
    0.0000    0.0000    0.0000 C   0  0  0  0  0  0  0  0  0  0  0  0
    0.0000    0.0000    0.0000 C   0  0  0  0  0  0  0  0  0  0  0  0
    0.0000    0.0000    0.0000 C   0  0  0  0  0  0  0  0  0  0  0  0
    0.0000    0.0000    0.0000 C   0  0  0  0  0  0  0  0  0  0  0  0
    0.0000    0.0000    0.0000 C   0  0  0  0  0  0  0  0  0  0  0  0
    0.0000    0.0000    0.0000 O   0  0  0  0  0  0  0  0  0  0  0  0
    0.0000    0.0000    0.0000 N   0  0  0  0  0  0  0  0  0  0  0  0
    0.0000    0.0000    0.0000 C   0  0  0  0  0  0  0  0  0  0  0  0
    0.0000    0.0000    0.0000 C   0  0  0  0  0  0  0  0  0  0  0  0
    0.0000    0.0000    0.0000 C   0  0  0  0  0  0  0  0  0  0  0  0
    0.0000    0.0000    0.0000 N   0  0  0  0  0  0  0  0  0  0  0  0
    0.0000    0.0000    0.0000 C   0  0  0  0  0  0  0  0  0  0  0  0
    0.0000    0.0000    0.0000 Cl  0  0  0  0  0  0  0  0  0  0  0  0
    0.0000    0.0000    0.0000 C   0  0  0  0  0  0  0  0  0  0  0  0
  1  2  1  0
  2  3  1  0
  3  4  1  0
  4  5  1  0
  5  6  1  0
  6  7  1  0
  7  8  1  0
  8  9  1  0
  9 10  1  0
  9 11  1  0
 11 12  1  0
 12 13  2  0
 13 14  1  0
 14 15  2  0
 15 16  1  0
 16 17  2  0
 16 18  1  0
 18 19  2  0
 18 20  1  0
  2 21  1  0
 21 22  2  0
 22 23  1  0
 23 24  2  0
 24 25  1  0
 25 26  1  0
 25 27  2  0
  7  3  1  0
 10  4  1  0
 17 12  1  0
 27 21  1  0
M  END
>  <pIC50>  (622) 
4.64

>  <ChEMBL_ID>  (622) 
CHEMBL1257459

>  <document_journal>  (622) 
Bioorg. Med. Chem. Lett.

>  <bao_endpoint>  (622) 
BAO_0000190

>  <potential_duplicate>  (622) 
False

>  <uo_units>  (622) 
UO_0000065

>  <canonical_smiles>  (622) 
C[C@@H](N1[C@@H]2CC[C@H]1C[C@@H](C2)Oc3cccc(c3)C(=O)N)c4ccnc(Cl)c4

>  <parent_molecule_chembl_id>  (622) 
CHEMBL1257459

>  <assay_type>  (622) 
F

>  <src_id>  (622) 
1

>  <ligand_efficiency>  (622) 
None

>  <standard_flag>  (622) 
True

>  <molecule_chembl_id>  (622) 
CHEMBL1257459

>  <target_organism>  (622) 
Homo sapiens

>  <standard_units>  (622) 
nM

>  <record_id>  (622) 
962349

>  <document_chembl_id>  (622) 
CHEMBL1255514

>  <bao_format>  (622) 
BAO_0000019

>  <data_validity_description>  (622) 
None

>  <activity_id>  (622) 
3497833

>  <standard_type>  (622) 
IC50

>  <target_chembl_id>  (622) 
CHEMBL233

>  <data_validity_comment>  (622) 
None

>  <published_value>  (622) 
22931

>  <document_year>  (622) 
2010

>  <target_pref_name>  (622) 
Mu opioid receptor

>  <assay_chembl_id>  (622) 
CHEMBL1259357

>  <standard_relation>  (622) 
=

>  <assay_description>  (622) 
Antagonist activity at human mu opioid receptor assessed as inhibition of DAMGO-stimulated [35S]GTPgammaS binding

>  <published_relation>  (622) 
=

>  <standard_value>  (622) 
22931

>  <qudt_units>  (622) 
http://www.openphacts.org/units/Nanomolar

>  <target_tax_id>  (622) 
9606

>  <bao_label>  (622) 
assay format

>  <published_units>  (622) 
nM

>  <pchembl_value>  (622) 
4.64

>  <published_type>  (622) 
IC50

>  <activity_comment>  (622) 
None

$$$$

     RDKit          

 27 30  0  0  0  0  0  0  0  0999 V2000
    0.0000    0.0000    0.0000 C   0  0  0  0  0  0  0  0  0  0  0  0
    0.0000    0.0000    0.0000 C   0  0  0  0  0  0  0  0  0  0  0  0
    0.0000    0.0000    0.0000 N   0  0  0  0  0  0  0  0  0  0  0  0
    0.0000    0.0000    0.0000 C   0  0  0  0  0  0  0  0  0  0  0  0
    0.0000    0.0000    0.0000 C   0  0  0  0  0  0  0  0  0  0  0  0
    0.0000    0.0000    0.0000 C   0  0  0  0  0  0  0  0  0  0  0  0
    0.0000    0.0000    0.0000 C   0  0  0  0  0  0  0  0  0  0  0  0
    0.0000    0.0000    0.0000 C   0  0  0  0  0  0  0  0  0  0  0  0
    0.0000    0.0000    0.0000 C   0  0  0  0  0  0  0  0  0  0  0  0
    0.0000    0.0000    0.0000 C   0  0  0  0  0  0  0  0  0  0  0  0
    0.0000    0.0000    0.0000 O   0  0  0  0  0  0  0  0  0  0  0  0
    0.0000    0.0000    0.0000 C   0  0  0  0  0  0  0  0  0  0  0  0
    0.0000    0.0000    0.0000 C   0  0  0  0  0  0  0  0  0  0  0  0
    0.0000    0.0000    0.0000 C   0  0  0  0  0  0  0  0  0  0  0  0
    0.0000    0.0000    0.0000 C   0  0  0  0  0  0  0  0  0  0  0  0
    0.0000    0.0000    0.0000 C   0  0  0  0  0  0  0  0  0  0  0  0
    0.0000    0.0000    0.0000 C   0  0  0  0  0  0  0  0  0  0  0  0
    0.0000    0.0000    0.0000 C   0  0  0  0  0  0  0  0  0  0  0  0
    0.0000    0.0000    0.0000 O   0  0  0  0  0  0  0  0  0  0  0  0
    0.0000    0.0000    0.0000 N   0  0  0  0  0  0  0  0  0  0  0  0
    0.0000    0.0000    0.0000 C   0  0  0  0  0  0  0  0  0  0  0  0
    0.0000    0.0000    0.0000 C   0  0  0  0  0  0  0  0  0  0  0  0
    0.0000    0.0000    0.0000 C   0  0  0  0  0  0  0  0  0  0  0  0
    0.0000    0.0000    0.0000 C   0  0  0  0  0  0  0  0  0  0  0  0
    0.0000    0.0000    0.0000 Cl  0  0  0  0  0  0  0  0  0  0  0  0
    0.0000    0.0000    0.0000 N   0  0  0  0  0  0  0  0  0  0  0  0
    0.0000    0.0000    0.0000 C   0  0  0  0  0  0  0  0  0  0  0  0
  1  2  1  0
  2  3  1  0
  3  4  1  0
  4  5  1  0
  5  6  1  0
  6  7  1  0
  7  8  1  0
  8  9  1  0
  9 10  1  0
  9 11  1  0
 11 12  1  0
 12 13  2  0
 13 14  1  0
 14 15  2  0
 15 16  1  0
 16 17  2  0
 16 18  1  0
 18 19  2  0
 18 20  1  0
  2 21  1  0
 21 22  2  0
 22 23  1  0
 23 24  2  0
 24 25  1  0
 24 26  1  0
 26 27  2  0
  7  3  1  0
 10  4  1  0
 17 12  1  0
 27 21  1  0
M  END
>  <pIC50>  (623) 
5.71

>  <ChEMBL_ID>  (623) 
CHEMBL1257579

>  <document_journal>  (623) 
Bioorg. Med. Chem. Lett.

>  <bao_endpoint>  (623) 
BAO_0000190

>  <potential_duplicate>  (623) 
False

>  <uo_units>  (623) 
UO_0000065

>  <canonical_smiles>  (623) 
C[C@@H](N1[C@@H]2CC[C@H]1C[C@@H](C2)Oc3cccc(c3)C(=O)N)c4ccc(Cl)nc4

>  <parent_molecule_chembl_id>  (623) 
CHEMBL1257579

>  <assay_type>  (623) 
F

>  <src_id>  (623) 
1

>  <ligand_efficiency>  (623) 
None

>  <standard_flag>  (623) 
True

>  <molecule_chembl_id>  (623) 
CHEMBL1257579

>  <target_organism>  (623) 
Homo sapiens

>  <standard_units>  (623) 
nM

>  <record_id>  (623) 
962478

>  <document_chembl_id>  (623) 
CHEMBL1255514

>  <bao_format>  (623) 
BAO_0000019

>  <data_validity_description>  (623) 
None

>  <activity_id>  (623) 
3497834

>  <standard_type>  (623) 
IC50

>  <target_chembl_id>  (623) 
CHEMBL233

>  <data_validity_comment>  (623) 
None

>  <published_value>  (623) 
1944

>  <document_year>  (623) 
2010

>  <target_pref_name>  (623) 
Mu opioid receptor

>  <assay_chembl_id>  (623) 
CHEMBL1259357

>  <standard_relation>  (623) 
=

>  <assay_description>  (623) 
Antagonist activity at human mu opioid receptor assessed as inhibition of DAMGO-stimulated [35S]GTPgammaS binding

>  <published_relation>  (623) 
=

>  <standard_value>  (623) 
1944

>  <qudt_units>  (623) 
http://www.openphacts.org/units/Nanomolar

>  <target_tax_id>  (623) 
9606

>  <bao_label>  (623) 
assay format

>  <published_units>  (623) 
nM

>  <pchembl_value>  (623) 
5.71

>  <published_type>  (623) 
IC50

>  <activity_comment>  (623) 
None

$$$$

     RDKit          

 54 61  0  0  0  0  0  0  0  0999 V2000
    0.0000    0.0000    0.0000 C   0  0  0  0  0  0  0  0  0  0  0  0
    0.0000    0.0000    0.0000 N   0  0  0  0  0  0  0  0  0  0  0  0
    0.0000    0.0000    0.0000 C   0  0  0  0  0  0  0  0  0  0  0  0
    0.0000    0.0000    0.0000 C   0  0  0  0  0  0  0  0  0  0  0  0
    0.0000    0.0000    0.0000 C   0  0  0  0  0  0  0  0  0  0  0  0
    0.0000    0.0000    0.0000 C   0  0  0  0  0  0  0  0  0  0  0  0
    0.0000    0.0000    0.0000 C   0  0  0  0  0  0  0  0  0  0  0  0
    0.0000    0.0000    0.0000 C   0  0  0  0  0  0  0  0  0  0  0  0
    0.0000    0.0000    0.0000 C   0  0  0  0  0  0  0  0  0  0  0  0
    0.0000    0.0000    0.0000 C   0  0  0  0  0  0  0  0  0  0  0  0
    0.0000    0.0000    0.0000 O   0  0  0  0  0  0  0  0  0  0  0  0
    0.0000    0.0000    0.0000 C   0  0  0  0  0  0  0  0  0  0  0  0
    0.0000    0.0000    0.0000 C   0  0  0  0  0  0  0  0  0  0  0  0
    0.0000    0.0000    0.0000 C   0  0  0  0  0  0  0  0  0  0  0  0
    0.0000    0.0000    0.0000 C   0  0  0  0  0  0  0  0  0  0  0  0
    0.0000    0.0000    0.0000 O   0  0  0  0  0  0  0  0  0  0  0  0
    0.0000    0.0000    0.0000 N   0  0  0  0  0  0  0  0  0  0  0  0
    0.0000    0.0000    0.0000 C   0  0  0  0  0  0  0  0  0  0  0  0
    0.0000    0.0000    0.0000 C   0  0  0  0  0  0  0  0  0  0  0  0
    0.0000    0.0000    0.0000 C   0  0  0  0  0  0  0  0  0  0  0  0
    0.0000    0.0000    0.0000 C   0  0  0  0  0  0  0  0  0  0  0  0
    0.0000    0.0000    0.0000 C   0  0  0  0  0  0  0  0  0  0  0  0
    0.0000    0.0000    0.0000 C   0  0  0  0  0  0  0  0  0  0  0  0
    0.0000    0.0000    0.0000 C   0  0  0  0  0  0  0  0  0  0  0  0
    0.0000    0.0000    0.0000 C   0  0  0  0  0  0  0  0  0  0  0  0
    0.0000    0.0000    0.0000 C   0  0  0  0  0  0  0  0  0  0  0  0
    0.0000    0.0000    0.0000 C   0  0  0  0  0  0  0  0  0  0  0  0
    0.0000    0.0000    0.0000 O   0  0  0  0  0  0  0  0  0  0  0  0
    0.0000    0.0000    0.0000 N   0  0  0  0  0  0  0  0  0  0  0  0
    0.0000    0.0000    0.0000 C   0  0  0  0  0  0  0  0  0  0  0  0
    0.0000    0.0000    0.0000 C   0  0  0  0  0  0  0  0  0  0  0  0
    0.0000    0.0000    0.0000 C   0  0  0  0  0  0  0  0  0  0  0  0
    0.0000    0.0000    0.0000 O   0  0  0  0  0  0  0  0  0  0  0  0
    0.0000    0.0000    0.0000 O   0  0  0  0  0  0  0  0  0  0  0  0
    0.0000    0.0000    0.0000 C   0  0  0  0  0  0  0  0  0  0  0  0
    0.0000    0.0000    0.0000 C   0  0  0  0  0  0  0  0  0  0  0  0
    0.0000    0.0000    0.0000 O   0  0  0  0  0  0  0  0  0  0  0  0
    0.0000    0.0000    0.0000 C   0  0  0  0  0  0  0  0  0  0  0  0
    0.0000    0.0000    0.0000 C   0  0  0  0  0  0  0  0  0  0  0  0
    0.0000    0.0000    0.0000 O   0  0  0  0  0  0  0  0  0  0  0  0
    0.0000    0.0000    0.0000 C   0  0  0  0  0  0  0  0  0  0  0  0
    0.0000    0.0000    0.0000 C   0  0  0  0  0  0  0  0  0  0  0  0
    0.0000    0.0000    0.0000 C   0  0  0  0  0  0  0  0  0  0  0  0
    0.0000    0.0000    0.0000 C   0  0  0  0  0  0  0  0  0  0  0  0
    0.0000    0.0000    0.0000 C   0  0  0  0  0  0  0  0  0  0  0  0
    0.0000    0.0000    0.0000 C   0  0  0  0  0  0  0  0  0  0  0  0
    0.0000    0.0000    0.0000 C   0  0  0  0  0  0  0  0  0  0  0  0
    0.0000    0.0000    0.0000 C   0  0  0  0  0  0  0  0  0  0  0  0
    0.0000    0.0000    0.0000 C   0  0  0  0  0  0  0  0  0  0  0  0
    0.0000    0.0000    0.0000 C   0  0  0  0  0  0  0  0  0  0  0  0
    0.0000    0.0000    0.0000 C   0  0  0  0  0  0  0  0  0  0  0  0
    0.0000    0.0000    0.0000 C   0  0  0  0  0  0  0  0  0  0  0  0
    0.0000    0.0000    0.0000 N   0  0  0  0  0  0  0  0  0  0  0  0
    0.0000    0.0000    0.0000 C   0  0  0  0  0  0  0  0  0  0  0  0
  1  2  1  0
  2  3  1  0
  2  4  1  0
  4  5  1  0
  5  6  1  0
  6  7  2  0
  7  8  1  0
  7  9  1  0
  9 10  2  0
 10 11  1  0
 10 12  1  0
 12 13  2  0
 13 14  1  0
  4 15  1  0
 15 16  2  0
 15 17  1  0
 17 18  1  0
 18 19  1  0
 19 20  2  0
 20 21  1  0
 21 22  2  0
 22 23  1  0
 23 24  2  0
 24 25  1  0
 25 26  1  0
 26 27  1  0
 27 28  2  0
 27 29  1  0
 29 30  1  0
 30 31  1  0
 31 32  1  0
 32 33  2  0
 32 34  1  0
 34 35  1  0
 35 36  2  0
 36 37  1  0
 37 38  1  0
 38 39  1  0
 39 40  1  0
 39 41  1  0
 41 42  2  0
 42 43  1  0
 43 44  1  0
 44 45  1  0
 45 46  1  0
 46 47  1  0
 47 48  2  0
 46 49  1  0
 49 50  1  0
 50 51  1  0
 51 52  1  0
 52 53  1  0
 53 54  1  0
 13  6  1  0
 26 17  1  0
 24 19  1  0
 48 35  1  0
 49 36  1  0
 50 38  1  0
 50 43  1  0
 53 44  1  0
M  END
>  <pIC50>  (624) 
6.35

>  <ChEMBL_ID>  (624) 
CHEMBL1743605

>  <document_journal>  (624) 
Eur. J. Med. Chem.

>  <bao_endpoint>  (624) 
BAO_0000190

>  <potential_duplicate>  (624) 
False

>  <uo_units>  (624) 
UO_0000065

>  <canonical_smiles>  (624) 
CN(C)[C@@H](Cc1c(C)cc(O)cc1C)C(=O)N2Cc3ccccc3C[C@H]2C(=O)NCCC(=O)OC4=C5O[C@H]6[C@@H](O)C=C[C@H]7[C@H]8CC(C=C4)C5[C@@]67CCN8C.OC(=O)C(F)(F)F.OC(=O)C(F)(F)F

>  <parent_molecule_chembl_id>  (624) 
CHEMBL1669153

>  <assay_type>  (624) 
F

>  <src_id>  (624) 
1

>  <ligand_efficiency>  (624) 
None

>  <standard_flag>  (624) 
True

>  <molecule_chembl_id>  (624) 
CHEMBL1743605

>  <target_organism>  (624) 
Homo sapiens

>  <standard_units>  (624) 
nM

>  <record_id>  (624) 
1329044

>  <document_chembl_id>  (624) 
CHEMBL1667791

>  <bao_format>  (624) 
BAO_0000219

>  <data_validity_description>  (624) 
None

>  <activity_id>  (624) 
5202451

>  <standard_type>  (624) 
IC50

>  <target_chembl_id>  (624) 
CHEMBL233

>  <data_validity_comment>  (624) 
None

>  <published_value>  (624) 
450

>  <document_year>  (624) 
2011

>  <target_pref_name>  (624) 
Mu opioid receptor

>  <assay_chembl_id>  (624) 
CHEMBL1670110

>  <standard_relation>  (624) 
=

>  <assay_description>  (624) 
Antagonist activity at human mu opioid receptor expressed in CHO cells assessed as inhibition of DAMGO-induced [35S]GTPgammaS binding

>  <published_relation>  (624) 
=

>  <standard_value>  (624) 
450

>  <qudt_units>  (624) 
http://www.openphacts.org/units/Nanomolar

>  <target_tax_id>  (624) 
9606

>  <bao_label>  (624) 
cell-based format

>  <published_units>  (624) 
nM

>  <pchembl_value>  (624) 
6.35

>  <published_type>  (624) 
IC50

>  <activity_comment>  (624) 
None

$$$$

     RDKit          

 49 56  0  0  0  0  0  0  0  0999 V2000
    0.0000    0.0000    0.0000 C   0  0  0  0  0  0  0  0  0  0  0  0
    0.0000    0.0000    0.0000 N   0  0  0  0  0  0  0  0  0  0  0  0
    0.0000    0.0000    0.0000 C   0  0  0  0  0  0  0  0  0  0  0  0
    0.0000    0.0000    0.0000 C   0  0  0  0  0  0  0  0  0  0  0  0
    0.0000    0.0000    0.0000 C   0  0  0  0  0  0  0  0  0  0  0  0
    0.0000    0.0000    0.0000 C   0  0  0  0  0  0  0  0  0  0  0  0
    0.0000    0.0000    0.0000 C   0  0  0  0  0  0  0  0  0  0  0  0
    0.0000    0.0000    0.0000 C   0  0  0  0  0  0  0  0  0  0  0  0
    0.0000    0.0000    0.0000 C   0  0  0  0  0  0  0  0  0  0  0  0
    0.0000    0.0000    0.0000 C   0  0  0  0  0  0  0  0  0  0  0  0
    0.0000    0.0000    0.0000 O   0  0  0  0  0  0  0  0  0  0  0  0
    0.0000    0.0000    0.0000 C   0  0  0  0  0  0  0  0  0  0  0  0
    0.0000    0.0000    0.0000 C   0  0  0  0  0  0  0  0  0  0  0  0
    0.0000    0.0000    0.0000 C   0  0  0  0  0  0  0  0  0  0  0  0
    0.0000    0.0000    0.0000 C   0  0  0  0  0  0  0  0  0  0  0  0
    0.0000    0.0000    0.0000 O   0  0  0  0  0  0  0  0  0  0  0  0
    0.0000    0.0000    0.0000 N   0  0  0  0  0  0  0  0  0  0  0  0
    0.0000    0.0000    0.0000 C   0  0  0  0  0  0  0  0  0  0  0  0
    0.0000    0.0000    0.0000 C   0  0  0  0  0  0  0  0  0  0  0  0
    0.0000    0.0000    0.0000 C   0  0  0  0  0  0  0  0  0  0  0  0
    0.0000    0.0000    0.0000 C   0  0  0  0  0  0  0  0  0  0  0  0
    0.0000    0.0000    0.0000 C   0  0  0  0  0  0  0  0  0  0  0  0
    0.0000    0.0000    0.0000 C   0  0  0  0  0  0  0  0  0  0  0  0
    0.0000    0.0000    0.0000 C   0  0  0  0  0  0  0  0  0  0  0  0
    0.0000    0.0000    0.0000 C   0  0  0  0  0  0  0  0  0  0  0  0
    0.0000    0.0000    0.0000 C   0  0  0  0  0  0  0  0  0  0  0  0
    0.0000    0.0000    0.0000 C   0  0  0  0  0  0  0  0  0  0  0  0
    0.0000    0.0000    0.0000 O   0  0  0  0  0  0  0  0  0  0  0  0
    0.0000    0.0000    0.0000 O   0  0  0  0  0  0  0  0  0  0  0  0
    0.0000    0.0000    0.0000 C   0  0  0  0  0  0  0  0  0  0  0  0
    0.0000    0.0000    0.0000 C   0  0  0  0  0  0  0  0  0  0  0  0
    0.0000    0.0000    0.0000 O   0  0  0  0  0  0  0  0  0  0  0  0
    0.0000    0.0000    0.0000 C   0  0  0  0  0  0  0  0  0  0  0  0
    0.0000    0.0000    0.0000 C   0  0  0  0  0  0  0  0  0  0  0  0
    0.0000    0.0000    0.0000 O   0  0  0  0  0  0  0  0  0  0  0  0
    0.0000    0.0000    0.0000 C   0  0  0  0  0  0  0  0  0  0  0  0
    0.0000    0.0000    0.0000 C   0  0  0  0  0  0  0  0  0  0  0  0
    0.0000    0.0000    0.0000 C   0  0  0  0  0  0  0  0  0  0  0  0
    0.0000    0.0000    0.0000 C   0  0  0  0  0  0  0  0  0  0  0  0
    0.0000    0.0000    0.0000 C   0  0  0  0  0  0  0  0  0  0  0  0
    0.0000    0.0000    0.0000 C   0  0  0  0  0  0  0  0  0  0  0  0
    0.0000    0.0000    0.0000 C   0  0  0  0  0  0  0  0  0  0  0  0
    0.0000    0.0000    0.0000 C   0  0  0  0  0  0  0  0  0  0  0  0
    0.0000    0.0000    0.0000 C   0  0  0  0  0  0  0  0  0  0  0  0
    0.0000    0.0000    0.0000 C   0  0  0  0  0  0  0  0  0  0  0  0
    0.0000    0.0000    0.0000 C   0  0  0  0  0  0  0  0  0  0  0  0
    0.0000    0.0000    0.0000 C   0  0  0  0  0  0  0  0  0  0  0  0
    0.0000    0.0000    0.0000 N   0  0  0  0  0  0  0  0  0  0  0  0
    0.0000    0.0000    0.0000 C   0  0  0  0  0  0  0  0  0  0  0  0
  1  2  1  0
  2  3  1  0
  2  4  1  0
  4  5  1  0
  5  6  1  0
  6  7  2  0
  7  8  1  0
  7  9  1  0
  9 10  2  0
 10 11  1  0
 10 12  1  0
 12 13  2  0
 13 14  1  0
  4 15  1  0
 15 16  2  0
 15 17  1  0
 17 18  1  0
 18 19  1  0
 19 20  2  0
 20 21  1  0
 21 22  2  0
 22 23  1  0
 23 24  2  0
 24 25  1  0
 25 26  1  0
 26 27  1  0
 27 28  2  0
 27 29  1  0
 29 30  1  0
 30 31  2  0
 31 32  1  0
 32 33  1  0
 33 34  1  0
 34 35  1  0
 34 36  1  0
 36 37  2  0
 37 38  1  0
 38 39  1  0
 39 40  1  0
 40 41  1  0
 41 42  1  0
 42 43  2  0
 41 44  1  0
 44 45  1  0
 45 46  1  0
 46 47  1  0
 47 48  1  0
 48 49  1  0
 13  6  1  0
 26 17  1  0
 24 19  1  0
 43 30  1  0
 44 31  1  0
 45 33  1  0
 45 38  1  0
 48 39  1  0
M  END
>  <pIC50>  (625) 
7.89

>  <ChEMBL_ID>  (625) 
CHEMBL1743604

>  <document_journal>  (625) 
Eur. J. Med. Chem.

>  <bao_endpoint>  (625) 
BAO_0000190

>  <potential_duplicate>  (625) 
False

>  <uo_units>  (625) 
UO_0000065

>  <canonical_smiles>  (625) 
CN(C)[C@@H](Cc1c(C)cc(O)cc1C)C(=O)N2Cc3ccccc3C[C@H]2C(=O)OC4=C5O[C@H]6[C@@H](O)C=C[C@H]7[C@H]8CC(C=C4)C5[C@@]67CCN8C.OC(=O)C(F)(F)F.OC(=O)C(F)(F)F

>  <parent_molecule_chembl_id>  (625) 
CHEMBL1669152

>  <assay_type>  (625) 
F

>  <src_id>  (625) 
1

>  <ligand_efficiency>  (625) 
None

>  <standard_flag>  (625) 
True

>  <molecule_chembl_id>  (625) 
CHEMBL1743604

>  <target_organism>  (625) 
Homo sapiens

>  <standard_units>  (625) 
nM

>  <record_id>  (625) 
1329043

>  <document_chembl_id>  (625) 
CHEMBL1667791

>  <bao_format>  (625) 
BAO_0000219

>  <data_validity_description>  (625) 
None

>  <activity_id>  (625) 
5202452

>  <standard_type>  (625) 
IC50

>  <target_chembl_id>  (625) 
CHEMBL233

>  <data_validity_comment>  (625) 
None

>  <published_value>  (625) 
13

>  <document_year>  (625) 
2011

>  <target_pref_name>  (625) 
Mu opioid receptor

>  <assay_chembl_id>  (625) 
CHEMBL1670110

>  <standard_relation>  (625) 
=

>  <assay_description>  (625) 
Antagonist activity at human mu opioid receptor expressed in CHO cells assessed as inhibition of DAMGO-induced [35S]GTPgammaS binding

>  <published_relation>  (625) 
=

>  <standard_value>  (625) 
13

>  <qudt_units>  (625) 
http://www.openphacts.org/units/Nanomolar

>  <target_tax_id>  (625) 
9606

>  <bao_label>  (625) 
cell-based format

>  <published_units>  (625) 
nM

>  <pchembl_value>  (625) 
7.89

>  <published_type>  (625) 
IC50

>  <activity_comment>  (625) 
None

$$$$

     RDKit          

 34 38  0  0  0  0  0  0  0  0999 V2000
    0.0000    0.0000    0.0000 C   0  0  0  0  0  0  0  0  0  0  0  0
    0.0000    0.0000    0.0000 C   0  0  0  0  0  0  0  0  0  0  0  0
    0.0000    0.0000    0.0000 C   0  0  0  0  0  0  0  0  0  0  0  0
    0.0000    0.0000    0.0000 C   0  0  0  0  0  0  0  0  0  0  0  0
    0.0000    0.0000    0.0000 N   0  0  0  0  0  0  0  0  0  0  0  0
    0.0000    0.0000    0.0000 C   0  0  0  0  0  0  0  0  0  0  0  0
    0.0000    0.0000    0.0000 N   0  0  0  0  0  0  0  0  0  0  0  0
    0.0000    0.0000    0.0000 C   0  0  0  0  0  0  0  0  0  0  0  0
    0.0000    0.0000    0.0000 C   0  0  0  0  0  0  0  0  0  0  0  0
    0.0000    0.0000    0.0000 O   0  0  0  0  0  0  0  0  0  0  0  0
    0.0000    0.0000    0.0000 N   0  0  0  0  0  0  0  0  0  0  0  0
    0.0000    0.0000    0.0000 C   0  0  0  0  0  0  0  0  0  0  0  0
    0.0000    0.0000    0.0000 C   0  0  0  0  0  0  0  0  0  0  0  0
    0.0000    0.0000    0.0000 C   0  0  0  0  0  0  0  0  0  0  0  0
    0.0000    0.0000    0.0000 N   0  0  0  0  0  0  0  0  0  0  0  0
    0.0000    0.0000    0.0000 C   0  0  0  0  0  0  0  0  0  0  0  0
    0.0000    0.0000    0.0000 C   0  0  0  0  0  0  0  0  0  0  0  0
    0.0000    0.0000    0.0000 N   0  0  0  0  0  0  0  0  0  0  0  0
    0.0000    0.0000    0.0000 C   0  0  0  0  0  0  0  0  0  0  0  0
    0.0000    0.0000    0.0000 C   0  0  0  0  0  0  0  0  0  0  0  0
    0.0000    0.0000    0.0000 C   0  0  0  0  0  0  0  0  0  0  0  0
    0.0000    0.0000    0.0000 C   0  0  0  0  0  0  0  0  0  0  0  0
    0.0000    0.0000    0.0000 C   0  0  0  0  0  0  0  0  0  0  0  0
    0.0000    0.0000    0.0000 C   0  0  0  0  0  0  0  0  0  0  0  0
    0.0000    0.0000    0.0000 C   0  0  0  0  0  0  0  0  0  0  0  0
    0.0000    0.0000    0.0000 C   0  0  0  0  0  0  0  0  0  0  0  0
    0.0000    0.0000    0.0000 C   0  0  0  0  0  0  0  0  0  0  0  0
    0.0000    0.0000    0.0000 O   0  0  0  0  0  0  0  0  0  0  0  0
    0.0000    0.0000    0.0000 C   0  0  0  0  0  0  0  0  0  0  0  0
    0.0000    0.0000    0.0000 C   0  0  0  0  0  0  0  0  0  0  0  0
    0.0000    0.0000    0.0000 C   0  0  0  0  0  0  0  0  0  0  0  0
    0.0000    0.0000    0.0000 C   0  0  0  0  0  0  0  0  0  0  0  0
    0.0000    0.0000    0.0000 N   0  0  0  0  0  0  0  0  0  0  0  0
    0.0000    0.0000    0.0000 C   0  0  0  0  0  0  0  0  0  0  0  0
  1  2  1  0
  2  3  2  0
  3  4  1  0
  4  5  2  0
  5  6  1  0
  6  7  1  0
  7  8  1  0
  8  9  1  0
  9 10  2  0
  9 11  1  0
 11 12  1  0
 12 13  1  0
 13 14  1  0
 14 15  1  0
 15 16  1  0
 16 17  1  0
 17 18  1  0
 18 19  1  0
 19 20  1  0
 18 21  1  0
 21 22  2  0
 22 23  1  0
 23 24  2  0
 24 25  1  0
 25 26  2  0
  7 27  1  0
 27 28  2  0
 27 29  1  0
 29 30  2  0
 30 31  1  0
 31 32  2  0
 32 33  1  0
 33 34  1  0
 34  2  1  0
 34  6  2  0
 20 15  1  0
 26 21  1  0
 33 29  1  0
M  END
>  <pIC50>  (626) 
4.65

>  <ChEMBL_ID>  (626) 
CHEMBL1717312

>  <document_journal>  (626) 
None

>  <bao_endpoint>  (626) 
BAO_0000190

>  <potential_duplicate>  (626) 
False

>  <uo_units>  (626) 
UO_0000065

>  <canonical_smiles>  (626) 
Cc1ccnc2N(CC(=O)NCCCN3CCN(CC3)c4ccccc4)C(=O)c5cccn5c12

>  <parent_molecule_chembl_id>  (626) 
CHEMBL1717312

>  <assay_type>  (626) 
F

>  <src_id>  (626) 
7

>  <ligand_efficiency>  (626) 
None

>  <standard_flag>  (626) 
True

>  <molecule_chembl_id>  (626) 
CHEMBL1717312

>  <target_organism>  (626) 
Homo sapiens

>  <standard_units>  (626) 
nM

>  <record_id>  (626) 
1386715

>  <document_chembl_id>  (626) 
CHEMBL1201862

>  <bao_format>  (626) 
BAO_0000019

>  <data_validity_description>  (626) 
None

>  <activity_id>  (626) 
5408042

>  <standard_type>  (626) 
IC50

>  <target_chembl_id>  (626) 
CHEMBL233

>  <data_validity_comment>  (626) 
None

>  <published_value>  (626) 
22.5

>  <document_year>  (626) 
None

>  <target_pref_name>  (626) 
Mu opioid receptor

>  <assay_chembl_id>  (626) 
CHEMBL1738030

>  <standard_relation>  (626) 
=

>  <assay_description>  (626) 
PUBCHEM_BIOASSAY: SAR Analysis of Antagonists of the MOR Receptor using an Image-Based Assay - Set 3. (Class of assay: confirmatory) [Related pubchem assays (depositor defined):AID1777, AID1785, AID1786, AID1966, AID2133, AID2136, AID2284, AID2285, AID2420]

>  <published_relation>  (626) 
=

>  <standard_value>  (626) 
22500

>  <qudt_units>  (626) 
http://www.openphacts.org/units/Nanomolar

>  <target_tax_id>  (626) 
9606

>  <bao_label>  (626) 
assay format

>  <published_units>  (626) 
uM

>  <pchembl_value>  (626) 
4.65

>  <published_type>  (626) 
IC50

>  <activity_comment>  (626) 
inactive

$$$$

     RDKit          

 36 39  0  0  0  0  0  0  0  0999 V2000
    0.0000    0.0000    0.0000 C   0  0  0  0  0  0  0  0  0  0  0  0
    0.0000    0.0000    0.0000 C   0  0  0  0  0  0  0  0  0  0  0  0
    0.0000    0.0000    0.0000 C   0  0  0  0  0  0  0  0  0  0  0  0
    0.0000    0.0000    0.0000 C   0  0  0  0  0  0  0  0  0  0  0  0
    0.0000    0.0000    0.0000 C   0  0  0  0  0  0  0  0  0  0  0  0
    0.0000    0.0000    0.0000 C   0  0  0  0  0  0  0  0  0  0  0  0
    0.0000    0.0000    0.0000 C   0  0  0  0  0  0  0  0  0  0  0  0
    0.0000    0.0000    0.0000 S   0  0  0  0  0  0  0  0  0  0  0  0
    0.0000    0.0000    0.0000 O   0  0  0  0  0  0  0  0  0  0  0  0
    0.0000    0.0000    0.0000 O   0  0  0  0  0  0  0  0  0  0  0  0
    0.0000    0.0000    0.0000 N   0  0  0  0  0  0  0  0  0  0  0  0
    0.0000    0.0000    0.0000 C   0  0  0  0  0  0  0  0  0  0  0  0
    0.0000    0.0000    0.0000 C   0  0  0  0  0  0  0  0  0  0  0  0
    0.0000    0.0000    0.0000 C   0  0  0  0  0  0  0  0  0  0  0  0
    0.0000    0.0000    0.0000 C   0  0  0  0  0  0  0  0  0  0  0  0
    0.0000    0.0000    0.0000 C   0  0  0  0  0  0  0  0  0  0  0  0
    0.0000    0.0000    0.0000 C   0  0  0  0  0  0  0  0  0  0  0  0
    0.0000    0.0000    0.0000 C   0  0  0  0  0  0  0  0  0  0  0  0
    0.0000    0.0000    0.0000 C   0  0  0  0  0  0  0  0  0  0  0  0
    0.0000    0.0000    0.0000 O   0  0  0  0  0  0  0  0  0  0  0  0
    0.0000    0.0000    0.0000 N   0  0  0  0  0  0  0  0  0  0  0  0
    0.0000    0.0000    0.0000 C   0  0  0  0  0  0  0  0  0  0  0  0
    0.0000    0.0000    0.0000 C   0  0  0  0  0  0  0  0  0  0  0  0
    0.0000    0.0000    0.0000 C   0  0  0  0  0  0  0  0  0  0  0  0
    0.0000    0.0000    0.0000 N   0  0  0  0  0  0  0  0  0  0  0  0
    0.0000    0.0000    0.0000 C   0  0  0  0  0  0  0  0  0  0  0  0
    0.0000    0.0000    0.0000 C   0  0  0  0  0  0  0  0  0  0  0  0
    0.0000    0.0000    0.0000 N   0  0  0  0  0  0  0  0  0  0  0  0
    0.0000    0.0000    0.0000 C   0  0  0  0  0  0  0  0  0  0  0  0
    0.0000    0.0000    0.0000 C   0  0  0  0  0  0  0  0  0  0  0  0
    0.0000    0.0000    0.0000 C   0  0  0  0  0  0  0  0  0  0  0  0
    0.0000    0.0000    0.0000 C   0  0  0  0  0  0  0  0  0  0  0  0
    0.0000    0.0000    0.0000 C   0  0  0  0  0  0  0  0  0  0  0  0
    0.0000    0.0000    0.0000 C   0  0  0  0  0  0  0  0  0  0  0  0
    0.0000    0.0000    0.0000 C   0  0  0  0  0  0  0  0  0  0  0  0
    0.0000    0.0000    0.0000 C   0  0  0  0  0  0  0  0  0  0  0  0
  1  2  1  0
  2  3  2  0
  3  4  1  0
  4  5  2  0
  5  6  1  0
  6  7  2  0
  5  8  1  0
  8  9  2  0
  8 10  2  0
  8 11  1  0
 11 12  1  0
 12 13  1  0
 13 14  2  0
 14 15  1  0
 15 16  2  0
 16 17  1  0
 17 18  2  0
 16 19  1  0
 19 20  2  0
 19 21  1  0
 21 22  1  0
 22 23  1  0
 23 24  1  0
 24 25  1  0
 25 26  1  0
 26 27  1  0
 27 28  1  0
 28 29  1  0
 29 30  1  0
 28 31  1  0
 31 32  2  0
 32 33  1  0
 33 34  2  0
 34 35  1  0
 35 36  2  0
  7  2  1  0
 18 13  1  0
 30 25  1  0
 36 31  1  0
M  END
>  <pIC50>  (627) 
6.33

>  <ChEMBL_ID>  (627) 
CHEMBL1712885

>  <document_journal>  (627) 
None

>  <bao_endpoint>  (627) 
BAO_0000190

>  <potential_duplicate>  (627) 
False

>  <uo_units>  (627) 
UO_0000065

>  <canonical_smiles>  (627) 
Cc1ccc(cc1)S(=O)(=O)NCc2ccc(cc2)C(=O)NCCCN3CCN(CC3)c4ccccc4

>  <parent_molecule_chembl_id>  (627) 
CHEMBL1712885

>  <assay_type>  (627) 
F

>  <src_id>  (627) 
7

>  <ligand_efficiency>  (627) 
None

>  <standard_flag>  (627) 
True

>  <molecule_chembl_id>  (627) 
CHEMBL1712885

>  <target_organism>  (627) 
Homo sapiens

>  <standard_units>  (627) 
nM

>  <record_id>  (627) 
1389293

>  <document_chembl_id>  (627) 
CHEMBL1201862

>  <bao_format>  (627) 
BAO_0000019

>  <data_validity_description>  (627) 
None

>  <activity_id>  (627) 
5408044

>  <standard_type>  (627) 
IC50

>  <target_chembl_id>  (627) 
CHEMBL233

>  <data_validity_comment>  (627) 
None

>  <published_value>  (627) 
0.469

>  <document_year>  (627) 
None

>  <target_pref_name>  (627) 
Mu opioid receptor

>  <assay_chembl_id>  (627) 
CHEMBL1738030

>  <standard_relation>  (627) 
=

>  <assay_description>  (627) 
PUBCHEM_BIOASSAY: SAR Analysis of Antagonists of the MOR Receptor using an Image-Based Assay - Set 3. (Class of assay: confirmatory) [Related pubchem assays (depositor defined):AID1777, AID1785, AID1786, AID1966, AID2133, AID2136, AID2284, AID2285, AID2420]

>  <published_relation>  (627) 
=

>  <standard_value>  (627) 
469

>  <qudt_units>  (627) 
http://www.openphacts.org/units/Nanomolar

>  <target_tax_id>  (627) 
9606

>  <bao_label>  (627) 
assay format

>  <published_units>  (627) 
uM

>  <pchembl_value>  (627) 
6.33

>  <published_type>  (627) 
IC50

>  <activity_comment>  (627) 
Active

$$$$

     RDKit          

 35 39  0  0  0  0  0  0  0  0999 V2000
    0.0000    0.0000    0.0000 Cl  0  0  0  0  0  0  0  0  0  0  0  0
    0.0000    0.0000    0.0000 C   0  0  0  0  0  0  0  0  0  0  0  0
    0.0000    0.0000    0.0000 C   0  0  0  0  0  0  0  0  0  0  0  0
    0.0000    0.0000    0.0000 C   0  0  0  0  0  0  0  0  0  0  0  0
    0.0000    0.0000    0.0000 C   0  0  0  0  0  0  0  0  0  0  0  0
    0.0000    0.0000    0.0000 C   0  0  0  0  0  0  0  0  0  0  0  0
    0.0000    0.0000    0.0000 C   0  0  0  0  0  0  0  0  0  0  0  0
    0.0000    0.0000    0.0000 N   0  0  0  0  0  0  0  0  0  0  0  0
    0.0000    0.0000    0.0000 C   0  0  0  0  0  0  0  0  0  0  0  0
    0.0000    0.0000    0.0000 C   0  0  0  0  0  0  0  0  0  0  0  0
    0.0000    0.0000    0.0000 N   0  0  0  0  0  0  0  0  0  0  0  0
    0.0000    0.0000    0.0000 C   0  0  0  0  0  0  0  0  0  0  0  0
    0.0000    0.0000    0.0000 C   0  0  0  0  0  0  0  0  0  0  0  0
    0.0000    0.0000    0.0000 C   0  0  0  0  0  0  0  0  0  0  0  0
    0.0000    0.0000    0.0000 N   0  0  0  0  0  0  0  0  0  0  0  0
    0.0000    0.0000    0.0000 C   0  0  0  0  0  0  0  0  0  0  0  0
    0.0000    0.0000    0.0000 O   0  0  0  0  0  0  0  0  0  0  0  0
    0.0000    0.0000    0.0000 C   0  0  0  0  0  0  0  0  0  0  0  0
    0.0000    0.0000    0.0000 N   0  0  0  0  0  0  0  0  0  0  0  0
    0.0000    0.0000    0.0000 C   0  0  0  0  0  0  0  0  0  0  0  0
    0.0000    0.0000    0.0000 O   0  0  0  0  0  0  0  0  0  0  0  0
    0.0000    0.0000    0.0000 C   0  0  0  0  0  0  0  0  0  0  0  0
    0.0000    0.0000    0.0000 C   0  0  0  0  0  0  0  0  0  0  0  0
    0.0000    0.0000    0.0000 C   0  0  0  0  0  0  0  0  0  0  0  0
    0.0000    0.0000    0.0000 C   0  0  0  0  0  0  0  0  0  0  0  0
    0.0000    0.0000    0.0000 N   0  0  0  0  0  0  0  0  0  0  0  0
    0.0000    0.0000    0.0000 C   0  0  0  0  0  0  0  0  0  0  0  0
    0.0000    0.0000    0.0000 C   0  0  0  0  0  0  0  0  0  0  0  0
    0.0000    0.0000    0.0000 C   0  0  0  0  0  0  0  0  0  0  0  0
    0.0000    0.0000    0.0000 Br  0  0  0  0  0  0  0  0  0  0  0  0
    0.0000    0.0000    0.0000 C   0  0  0  0  0  0  0  0  0  0  0  0
    0.0000    0.0000    0.0000 N   0  0  0  0  0  0  0  0  0  0  0  0
    0.0000    0.0000    0.0000 C   0  0  0  0  0  0  0  0  0  0  0  0
    0.0000    0.0000    0.0000 C   0  0  0  0  0  0  0  0  0  0  0  0
    0.0000    0.0000    0.0000 C   0  0  0  0  0  0  0  0  0  0  0  0
  1  2  1  0
  2  3  2  0
  3  4  1  0
  4  5  2  0
  5  6  1  0
  6  7  2  0
  5  8  1  0
  8  9  1  0
  9 10  1  0
 10 11  1  0
 11 12  1  0
 12 13  1  0
 13 14  1  0
 14 15  1  0
 15 16  1  0
 16 17  2  0
 16 18  1  0
 18 19  1  0
 19 20  1  0
 20 21  2  0
 20 22  1  0
 22 23  2  0
 23 24  1  0
 24 25  2  0
 25 26  1  0
 26 27  1  0
 27 28  2  0
 28 29  1  0
 29 30  1  0
 29 31  2  0
 31 32  1  0
 32 33  2  0
 11 34  1  0
 34 35  1  0
  7  2  1  0
 35  8  1  0
 33 19  1  0
 26 22  1  0
 33 27  1  0
M  END
>  <pIC50>  (628) 
5.27

>  <ChEMBL_ID>  (628) 
CHEMBL1707988

>  <document_journal>  (628) 
None

>  <bao_endpoint>  (628) 
BAO_0000190

>  <potential_duplicate>  (628) 
False

>  <uo_units>  (628) 
UO_0000065

>  <canonical_smiles>  (628) 
Clc1ccc(cc1)N2CCN(CCCNC(=O)CN3C(=O)c4cccn4c5cc(Br)cnc35)CC2

>  <parent_molecule_chembl_id>  (628) 
CHEMBL1707988

>  <assay_type>  (628) 
F

>  <src_id>  (628) 
7

>  <ligand_efficiency>  (628) 
None

>  <standard_flag>  (628) 
True

>  <molecule_chembl_id>  (628) 
CHEMBL1707988

>  <target_organism>  (628) 
Homo sapiens

>  <standard_units>  (628) 
nM

>  <record_id>  (628) 
1388330

>  <document_chembl_id>  (628) 
CHEMBL1201862

>  <bao_format>  (628) 
BAO_0000019

>  <data_validity_description>  (628) 
None

>  <activity_id>  (628) 
5408046

>  <standard_type>  (628) 
IC50

>  <target_chembl_id>  (628) 
CHEMBL233

>  <data_validity_comment>  (628) 
None

>  <published_value>  (628) 
5.32

>  <document_year>  (628) 
None

>  <target_pref_name>  (628) 
Mu opioid receptor

>  <assay_chembl_id>  (628) 
CHEMBL1738030

>  <standard_relation>  (628) 
=

>  <assay_description>  (628) 
PUBCHEM_BIOASSAY: SAR Analysis of Antagonists of the MOR Receptor using an Image-Based Assay - Set 3. (Class of assay: confirmatory) [Related pubchem assays (depositor defined):AID1777, AID1785, AID1786, AID1966, AID2133, AID2136, AID2284, AID2285, AID2420]

>  <published_relation>  (628) 
=

>  <standard_value>  (628) 
5320

>  <qudt_units>  (628) 
http://www.openphacts.org/units/Nanomolar

>  <target_tax_id>  (628) 
9606

>  <bao_label>  (628) 
assay format

>  <published_units>  (628) 
uM

>  <pchembl_value>  (628) 
5.27

>  <published_type>  (628) 
IC50

>  <activity_comment>  (628) 
Active

$$$$

     RDKit          

 39 42  0  0  0  0  0  0  0  0999 V2000
    0.0000    0.0000    0.0000 C   0  0  0  0  0  0  0  0  0  0  0  0
    0.0000    0.0000    0.0000 C   0  0  0  0  0  0  0  0  0  0  0  0
    0.0000    0.0000    0.0000 C   0  0  0  0  0  0  0  0  0  0  0  0
    0.0000    0.0000    0.0000 N   0  0  0  0  0  0  0  0  0  0  0  0
    0.0000    0.0000    0.0000 C   0  0  0  0  0  0  0  0  0  0  0  0
    0.0000    0.0000    0.0000 C   0  0  0  0  0  0  0  0  0  0  0  0
    0.0000    0.0000    0.0000 N   0  0  0  0  0  0  0  0  0  0  0  0
    0.0000    0.0000    0.0000 C   0  0  0  0  0  0  0  0  0  0  0  0
    0.0000    0.0000    0.0000 O   0  0  0  0  0  0  0  0  0  0  0  0
    0.0000    0.0000    0.0000 C   0  0  0  0  0  0  0  0  0  0  0  0
    0.0000    0.0000    0.0000 C   0  0  0  0  0  0  0  0  0  0  0  0
    0.0000    0.0000    0.0000 C   0  0  0  0  0  0  0  0  0  0  0  0
    0.0000    0.0000    0.0000 C   0  0  0  0  0  0  0  0  0  0  0  0
    0.0000    0.0000    0.0000 C   0  0  0  0  0  0  0  0  0  0  0  0
    0.0000    0.0000    0.0000 N   0  0  0  0  0  0  0  0  0  0  0  0
    0.0000    0.0000    0.0000 S   0  0  0  0  0  0  0  0  0  0  0  0
    0.0000    0.0000    0.0000 O   0  0  0  0  0  0  0  0  0  0  0  0
    0.0000    0.0000    0.0000 O   0  0  0  0  0  0  0  0  0  0  0  0
    0.0000    0.0000    0.0000 C   0  0  0  0  0  0  0  0  0  0  0  0
    0.0000    0.0000    0.0000 C   0  0  0  0  0  0  0  0  0  0  0  0
    0.0000    0.0000    0.0000 C   0  0  0  0  0  0  0  0  0  0  0  0
    0.0000    0.0000    0.0000 C   0  0  0  0  0  0  0  0  0  0  0  0
    0.0000    0.0000    0.0000 C   0  0  0  0  0  0  0  0  0  0  0  0
    0.0000    0.0000    0.0000 C   0  0  0  0  0  0  0  0  0  0  0  0
    0.0000    0.0000    0.0000 C   0  0  0  0  0  0  0  0  0  0  0  0
    0.0000    0.0000    0.0000 C   0  0  0  0  0  0  0  0  0  0  0  0
    0.0000    0.0000    0.0000 C   0  0  0  0  0  0  0  0  0  0  0  0
    0.0000    0.0000    0.0000 C   0  0  0  0  0  0  0  0  0  0  0  0
    0.0000    0.0000    0.0000 C   0  0  0  0  0  0  0  0  0  0  0  0
    0.0000    0.0000    0.0000 C   0  0  0  0  0  0  0  0  0  0  0  0
    0.0000    0.0000    0.0000 C   0  0  0  0  0  0  0  0  0  0  0  0
    0.0000    0.0000    0.0000 C   0  0  0  0  0  0  0  0  0  0  0  0
    0.0000    0.0000    0.0000 C   0  0  0  0  0  0  0  0  0  0  0  0
    0.0000    0.0000    0.0000 C   0  0  0  0  0  0  0  0  0  0  0  0
    0.0000    0.0000    0.0000 C   0  0  0  0  0  0  0  0  0  0  0  0
    0.0000    0.0000    0.0000 C   0  0  0  0  0  0  0  0  0  0  0  0
    0.0000    0.0000    0.0000 C   0  0  0  0  0  0  0  0  0  0  0  0
    0.0000    0.0000    0.0000 C   0  0  0  0  0  0  0  0  0  0  0  0
    0.0000    0.0000    0.0000 C   0  0  0  0  0  0  0  0  0  0  0  0
  1  2  1  0
  2  3  1  0
  2  4  1  0
  4  5  1  0
  5  6  1  0
  6  7  1  0
  7  8  1  0
  8  9  2  0
  8 10  1  0
 10 11  2  0
 11 12  1  0
 12 13  2  0
 13 14  1  0
 14 15  1  0
 15 16  1  0
 16 17  2  0
 16 18  2  0
 16 19  1  0
 19 20  2  0
 20 21  1  0
 21 22  2  0
 22 23  1  0
 23 24  2  0
 22 25  1  0
 25 26  1  0
 26 27  1  0
 27 28  1  0
 28 29  1  0
 29 30  1  0
 13 31  1  0
 31 32  2  0
  4 33  1  0
 33 34  1  0
 34 35  2  0
 35 36  1  0
 36 37  2  0
 37 38  1  0
 38 39  2  0
 32 10  1  0
 24 19  1  0
 30 25  1  0
 39 34  1  0
M  END
>  <pIC50>  (629) 
5.61

>  <ChEMBL_ID>  (629) 
CHEMBL1717720

>  <document_journal>  (629) 
None

>  <bao_endpoint>  (629) 
BAO_0000190

>  <potential_duplicate>  (629) 
False

>  <uo_units>  (629) 
UO_0000065

>  <canonical_smiles>  (629) 
CC(C)N(CCNC(=O)c1ccc(CNS(=O)(=O)c2ccc(cc2)C3CCCCC3)cc1)Cc4ccccc4

>  <parent_molecule_chembl_id>  (629) 
CHEMBL1717720

>  <assay_type>  (629) 
F

>  <src_id>  (629) 
7

>  <ligand_efficiency>  (629) 
None

>  <standard_flag>  (629) 
True

>  <molecule_chembl_id>  (629) 
CHEMBL1717720

>  <target_organism>  (629) 
Homo sapiens

>  <standard_units>  (629) 
nM

>  <record_id>  (629) 
1388369

>  <document_chembl_id>  (629) 
CHEMBL1201862

>  <bao_format>  (629) 
BAO_0000019

>  <data_validity_description>  (629) 
None

>  <activity_id>  (629) 
5408048

>  <standard_type>  (629) 
IC50

>  <target_chembl_id>  (629) 
CHEMBL233

>  <data_validity_comment>  (629) 
None

>  <published_value>  (629) 
2.47

>  <document_year>  (629) 
None

>  <target_pref_name>  (629) 
Mu opioid receptor

>  <assay_chembl_id>  (629) 
CHEMBL1738030

>  <standard_relation>  (629) 
=

>  <assay_description>  (629) 
PUBCHEM_BIOASSAY: SAR Analysis of Antagonists of the MOR Receptor using an Image-Based Assay - Set 3. (Class of assay: confirmatory) [Related pubchem assays (depositor defined):AID1777, AID1785, AID1786, AID1966, AID2133, AID2136, AID2284, AID2285, AID2420]

>  <published_relation>  (629) 
=

>  <standard_value>  (629) 
2470

>  <qudt_units>  (629) 
http://www.openphacts.org/units/Nanomolar

>  <target_tax_id>  (629) 
9606

>  <bao_label>  (629) 
assay format

>  <published_units>  (629) 
uM

>  <pchembl_value>  (629) 
5.61

>  <published_type>  (629) 
IC50

>  <activity_comment>  (629) 
Active

$$$$

     RDKit          

 34 36  0  0  0  0  0  0  0  0999 V2000
    0.0000    0.0000    0.0000 C   0  0  0  0  0  0  0  0  0  0  0  0
    0.0000    0.0000    0.0000 N   0  0  0  0  0  0  0  0  0  0  0  0
    0.0000    0.0000    0.0000 C   0  0  0  0  0  0  0  0  0  0  0  0
    0.0000    0.0000    0.0000 C   0  0  0  0  0  0  0  0  0  0  0  0
    0.0000    0.0000    0.0000 N   0  0  0  0  0  0  0  0  0  0  0  0
    0.0000    0.0000    0.0000 C   0  0  0  0  0  0  0  0  0  0  0  0
    0.0000    0.0000    0.0000 O   0  0  0  0  0  0  0  0  0  0  0  0
    0.0000    0.0000    0.0000 C   0  0  0  0  0  0  0  0  0  0  0  0
    0.0000    0.0000    0.0000 C   0  0  0  0  0  0  0  0  0  0  0  0
    0.0000    0.0000    0.0000 C   0  0  0  0  0  0  0  0  0  0  0  0
    0.0000    0.0000    0.0000 C   0  0  0  0  0  0  0  0  0  0  0  0
    0.0000    0.0000    0.0000 C   0  0  0  0  0  0  0  0  0  0  0  0
    0.0000    0.0000    0.0000 N   0  0  0  0  0  0  0  0  0  0  0  0
    0.0000    0.0000    0.0000 S   0  0  0  0  0  0  0  0  0  0  0  0
    0.0000    0.0000    0.0000 O   0  0  0  0  0  0  0  0  0  0  0  0
    0.0000    0.0000    0.0000 O   0  0  0  0  0  0  0  0  0  0  0  0
    0.0000    0.0000    0.0000 C   0  0  0  0  0  0  0  0  0  0  0  0
    0.0000    0.0000    0.0000 C   0  0  0  0  0  0  0  0  0  0  0  0
    0.0000    0.0000    0.0000 C   0  0  0  0  0  0  0  0  0  0  0  0
    0.0000    0.0000    0.0000 C   0  0  0  0  0  0  0  0  0  0  0  0
    0.0000    0.0000    0.0000 C   0  0  0  0  0  0  0  0  0  0  0  0
    0.0000    0.0000    0.0000 C   0  0  0  0  0  0  0  0  0  0  0  0
    0.0000    0.0000    0.0000 N   0  0  0  0  0  0  0  0  0  0  0  0
    0.0000    0.0000    0.0000 O   0  0  0  0  0  0  0  0  0  0  0  0
    0.0000    0.0000    0.0000 O   0  0  0  0  0  0  0  0  0  0  0  0
    0.0000    0.0000    0.0000 C   0  0  0  0  0  0  0  0  0  0  0  0
    0.0000    0.0000    0.0000 C   0  0  0  0  0  0  0  0  0  0  0  0
    0.0000    0.0000    0.0000 C   0  0  0  0  0  0  0  0  0  0  0  0
    0.0000    0.0000    0.0000 C   0  0  0  0  0  0  0  0  0  0  0  0
    0.0000    0.0000    0.0000 C   0  0  0  0  0  0  0  0  0  0  0  0
    0.0000    0.0000    0.0000 C   0  0  0  0  0  0  0  0  0  0  0  0
    0.0000    0.0000    0.0000 C   0  0  0  0  0  0  0  0  0  0  0  0
    0.0000    0.0000    0.0000 C   0  0  0  0  0  0  0  0  0  0  0  0
    0.0000    0.0000    0.0000 C   0  0  0  0  0  0  0  0  0  0  0  0
  1  2  1  0
  2  3  1  0
  3  4  1  0
  4  5  1  0
  5  6  1  0
  6  7  2  0
  6  8  1  0
  8  9  2  0
  9 10  1  0
 10 11  2  0
 11 12  1  0
 12 13  1  0
 13 14  1  0
 14 15  2  0
 14 16  2  0
 14 17  1  0
 17 18  2  0
 18 19  1  0
 19 20  2  0
 20 21  1  0
 21 22  2  0
 20 23  1  0
 23 24  2  0
 23 25  1  0
 11 26  1  0
 26 27  2  0
  2 28  1  0
 28 29  1  0
 29 30  2  0
 30 31  1  0
 31 32  2  0
 32 33  1  0
 33 34  2  0
 27  8  1  0
 22 17  1  0
 34 29  1  0
M  CHG  2  23   1  25  -1
M  END
>  <pIC50>  (630) 
5.77

>  <ChEMBL_ID>  (630) 
CHEMBL1728022

>  <document_journal>  (630) 
None

>  <bao_endpoint>  (630) 
BAO_0000190

>  <potential_duplicate>  (630) 
False

>  <uo_units>  (630) 
UO_0000065

>  <canonical_smiles>  (630) 
CN(CCNC(=O)c1ccc(CNS(=O)(=O)c2ccc(cc2)[N+](=O)[O-])cc1)Cc3ccccc3

>  <parent_molecule_chembl_id>  (630) 
CHEMBL1728022

>  <assay_type>  (630) 
F

>  <src_id>  (630) 
7

>  <ligand_efficiency>  (630) 
None

>  <standard_flag>  (630) 
True

>  <molecule_chembl_id>  (630) 
CHEMBL1728022

>  <target_organism>  (630) 
Homo sapiens

>  <standard_units>  (630) 
nM

>  <record_id>  (630) 
1386716

>  <document_chembl_id>  (630) 
CHEMBL1201862

>  <bao_format>  (630) 
BAO_0000019

>  <data_validity_description>  (630) 
None

>  <activity_id>  (630) 
5408049

>  <standard_type>  (630) 
IC50

>  <target_chembl_id>  (630) 
CHEMBL233

>  <data_validity_comment>  (630) 
None

>  <published_value>  (630) 
1.69

>  <document_year>  (630) 
None

>  <target_pref_name>  (630) 
Mu opioid receptor

>  <assay_chembl_id>  (630) 
CHEMBL1738030

>  <standard_relation>  (630) 
=

>  <assay_description>  (630) 
PUBCHEM_BIOASSAY: SAR Analysis of Antagonists of the MOR Receptor using an Image-Based Assay - Set 3. (Class of assay: confirmatory) [Related pubchem assays (depositor defined):AID1777, AID1785, AID1786, AID1966, AID2133, AID2136, AID2284, AID2285, AID2420]

>  <published_relation>  (630) 
=

>  <standard_value>  (630) 
1690

>  <qudt_units>  (630) 
http://www.openphacts.org/units/Nanomolar

>  <target_tax_id>  (630) 
9606

>  <bao_label>  (630) 
assay format

>  <published_units>  (630) 
uM

>  <pchembl_value>  (630) 
5.77

>  <published_type>  (630) 
IC50

>  <activity_comment>  (630) 
Active

$$$$

     RDKit          

 32 34  0  0  0  0  0  0  0  0999 V2000
    0.0000    0.0000    0.0000 C   0  0  0  0  0  0  0  0  0  0  0  0
    0.0000    0.0000    0.0000 C   0  0  0  0  0  0  0  0  0  0  0  0
    0.0000    0.0000    0.0000 N   0  0  0  0  0  0  0  0  0  0  0  0
    0.0000    0.0000    0.0000 C   0  0  0  0  0  0  0  0  0  0  0  0
    0.0000    0.0000    0.0000 C   0  0  0  0  0  0  0  0  0  0  0  0
    0.0000    0.0000    0.0000 N   0  0  0  0  0  0  0  0  0  0  0  0
    0.0000    0.0000    0.0000 C   0  0  0  0  0  0  0  0  0  0  0  0
    0.0000    0.0000    0.0000 O   0  0  0  0  0  0  0  0  0  0  0  0
    0.0000    0.0000    0.0000 C   0  0  0  0  0  0  0  0  0  0  0  0
    0.0000    0.0000    0.0000 C   0  0  0  0  0  0  0  0  0  0  0  0
    0.0000    0.0000    0.0000 C   0  0  0  0  0  0  0  0  0  0  0  0
    0.0000    0.0000    0.0000 C   0  0  0  0  0  0  0  0  0  0  0  0
    0.0000    0.0000    0.0000 C   0  0  0  0  0  0  0  0  0  0  0  0
    0.0000    0.0000    0.0000 N   0  0  0  0  0  0  0  0  0  0  0  0
    0.0000    0.0000    0.0000 S   0  0  0  0  0  0  0  0  0  0  0  0
    0.0000    0.0000    0.0000 O   0  0  0  0  0  0  0  0  0  0  0  0
    0.0000    0.0000    0.0000 O   0  0  0  0  0  0  0  0  0  0  0  0
    0.0000    0.0000    0.0000 C   0  0  0  0  0  0  0  0  0  0  0  0
    0.0000    0.0000    0.0000 C   0  0  0  0  0  0  0  0  0  0  0  0
    0.0000    0.0000    0.0000 C   0  0  0  0  0  0  0  0  0  0  0  0
    0.0000    0.0000    0.0000 C   0  0  0  0  0  0  0  0  0  0  0  0
    0.0000    0.0000    0.0000 C   0  0  0  0  0  0  0  0  0  0  0  0
    0.0000    0.0000    0.0000 C   0  0  0  0  0  0  0  0  0  0  0  0
    0.0000    0.0000    0.0000 C   0  0  0  0  0  0  0  0  0  0  0  0
    0.0000    0.0000    0.0000 C   0  0  0  0  0  0  0  0  0  0  0  0
    0.0000    0.0000    0.0000 C   0  0  0  0  0  0  0  0  0  0  0  0
    0.0000    0.0000    0.0000 C   0  0  0  0  0  0  0  0  0  0  0  0
    0.0000    0.0000    0.0000 C   0  0  0  0  0  0  0  0  0  0  0  0
    0.0000    0.0000    0.0000 C   0  0  0  0  0  0  0  0  0  0  0  0
    0.0000    0.0000    0.0000 C   0  0  0  0  0  0  0  0  0  0  0  0
    0.0000    0.0000    0.0000 C   0  0  0  0  0  0  0  0  0  0  0  0
    0.0000    0.0000    0.0000 C   0  0  0  0  0  0  0  0  0  0  0  0
  1  2  1  0
  2  3  1  0
  3  4  1  0
  4  5  1  0
  5  6  1  0
  6  7  1  0
  7  8  2  0
  7  9  1  0
  9 10  2  0
 10 11  1  0
 11 12  2  0
 12 13  1  0
 13 14  1  0
 14 15  1  0
 15 16  2  0
 15 17  2  0
 15 18  1  0
 18 19  2  0
 19 20  1  0
 20 21  2  0
 21 22  1  0
 22 23  2  0
 12 24  1  0
 24 25  2  0
  3 26  1  0
 26 27  1  0
 27 28  2  0
 28 29  1  0
 29 30  2  0
 30 31  1  0
 31 32  2  0
 25  9  1  0
 23 18  1  0
 32 27  1  0
M  END
>  <pIC50>  (631) 
5.69

>  <ChEMBL_ID>  (631) 
CHEMBL1698780

>  <document_journal>  (631) 
None

>  <bao_endpoint>  (631) 
BAO_0000190

>  <potential_duplicate>  (631) 
False

>  <uo_units>  (631) 
UO_0000065

>  <canonical_smiles>  (631) 
CCN(CCNC(=O)c1ccc(CNS(=O)(=O)c2ccccc2)cc1)Cc3ccccc3

>  <parent_molecule_chembl_id>  (631) 
CHEMBL1698780

>  <assay_type>  (631) 
F

>  <src_id>  (631) 
7

>  <ligand_efficiency>  (631) 
None

>  <standard_flag>  (631) 
True

>  <molecule_chembl_id>  (631) 
CHEMBL1698780

>  <target_organism>  (631) 
Homo sapiens

>  <standard_units>  (631) 
nM

>  <record_id>  (631) 
1386718

>  <document_chembl_id>  (631) 
CHEMBL1201862

>  <bao_format>  (631) 
BAO_0000019

>  <data_validity_description>  (631) 
None

>  <activity_id>  (631) 
5408051

>  <standard_type>  (631) 
IC50

>  <target_chembl_id>  (631) 
CHEMBL233

>  <data_validity_comment>  (631) 
None

>  <published_value>  (631) 
2.03

>  <document_year>  (631) 
None

>  <target_pref_name>  (631) 
Mu opioid receptor

>  <assay_chembl_id>  (631) 
CHEMBL1738030

>  <standard_relation>  (631) 
=

>  <assay_description>  (631) 
PUBCHEM_BIOASSAY: SAR Analysis of Antagonists of the MOR Receptor using an Image-Based Assay - Set 3. (Class of assay: confirmatory) [Related pubchem assays (depositor defined):AID1777, AID1785, AID1786, AID1966, AID2133, AID2136, AID2284, AID2285, AID2420]

>  <published_relation>  (631) 
=

>  <standard_value>  (631) 
2030

>  <qudt_units>  (631) 
http://www.openphacts.org/units/Nanomolar

>  <target_tax_id>  (631) 
9606

>  <bao_label>  (631) 
assay format

>  <published_units>  (631) 
uM

>  <pchembl_value>  (631) 
5.69

>  <published_type>  (631) 
IC50

>  <activity_comment>  (631) 
Active

$$$$

     RDKit          

 27 29  0  0  0  0  0  0  0  0999 V2000
    0.0000    0.0000    0.0000 C   0  0  0  0  0  0  0  0  0  0  0  0
    0.0000    0.0000    0.0000 C   0  0  0  0  0  0  0  0  0  0  0  0
    0.0000    0.0000    0.0000 C   0  0  0  0  0  0  0  0  0  0  0  0
    0.0000    0.0000    0.0000 O   0  0  0  0  0  0  0  0  0  0  0  0
    0.0000    0.0000    0.0000 C   0  0  0  0  0  0  0  0  0  0  0  0
    0.0000    0.0000    0.0000 O   0  0  0  0  0  0  0  0  0  0  0  0
    0.0000    0.0000    0.0000 C   0  0  0  0  0  0  0  0  0  0  0  0
    0.0000    0.0000    0.0000 C   0  0  0  0  0  0  0  0  0  0  0  0
    0.0000    0.0000    0.0000 C   0  0  0  0  0  0  0  0  0  0  0  0
    0.0000    0.0000    0.0000 C   0  0  0  0  0  0  0  0  0  0  0  0
    0.0000    0.0000    0.0000 C   0  0  0  0  0  0  0  0  0  0  0  0
    0.0000    0.0000    0.0000 C   0  0  0  0  0  0  0  0  0  0  0  0
    0.0000    0.0000    0.0000 N   0  0  0  0  0  0  0  0  0  0  0  0
    0.0000    0.0000    0.0000 C   0  0  0  0  0  0  0  0  0  0  0  0
    0.0000    0.0000    0.0000 C   0  0  0  0  0  0  0  0  0  0  0  0
    0.0000    0.0000    0.0000 O   0  0  0  0  0  0  0  0  0  0  0  0
    0.0000    0.0000    0.0000 C   0  0  0  0  0  0  0  0  0  0  0  0
    0.0000    0.0000    0.0000 C   0  0  0  0  0  0  0  0  0  0  0  0
    0.0000    0.0000    0.0000 C   0  0  0  0  0  0  0  0  0  0  0  0
    0.0000    0.0000    0.0000 C   0  0  0  0  0  0  0  0  0  0  0  0
    0.0000    0.0000    0.0000 O   0  0  0  0  0  0  0  0  0  0  0  0
    0.0000    0.0000    0.0000 C   0  0  0  0  0  0  0  0  0  0  0  0
    0.0000    0.0000    0.0000 C   0  0  0  0  0  0  0  0  0  0  0  0
    0.0000    0.0000    0.0000 C   0  0  0  0  0  0  0  0  0  0  0  0
    0.0000    0.0000    0.0000 C   0  0  0  0  0  0  0  0  0  0  0  0
    0.0000    0.0000    0.0000 C   0  0  0  0  0  0  0  0  0  0  0  0
    0.0000    0.0000    0.0000 N   0  0  0  0  0  0  0  0  0  0  0  0
  1  2  1  0
  2  3  1  0
  2  4  1  0
  4  5  1  0
  5  6  2  0
  5  7  1  0
  7  8  1  0
  8  9  1  0
  9 10  1  0
 10 11  1  0
 11 12  1  0
  7 13  1  0
 13 14  1  0
 14 15  1  0
 15 16  1  0
 16 17  1  0
 17 18  2  0
 18 19  1  0
 13 20  1  0
 20 21  2  0
 20 22  1  0
 22 23  2  0
 23 24  1  0
 24 25  2  0
 25 26  1  0
 26 27  2  0
 12  7  1  0
 19 15  2  0
 27 22  1  0
M  END
>  <pIC50>  (632) 
4.82

>  <ChEMBL_ID>  (632) 
CHEMBL1698790

>  <document_journal>  (632) 
None

>  <bao_endpoint>  (632) 
BAO_0000190

>  <potential_duplicate>  (632) 
False

>  <uo_units>  (632) 
UO_0000065

>  <canonical_smiles>  (632) 
CC(C)OC(=O)C1(CCCCC1)N(Cc2occc2)C(=O)c3ccccn3

>  <parent_molecule_chembl_id>  (632) 
CHEMBL1698790

>  <assay_type>  (632) 
F

>  <src_id>  (632) 
7

>  <ligand_efficiency>  (632) 
None

>  <standard_flag>  (632) 
True

>  <molecule_chembl_id>  (632) 
CHEMBL1698790

>  <target_organism>  (632) 
Homo sapiens

>  <standard_units>  (632) 
nM

>  <record_id>  (632) 
1386725

>  <document_chembl_id>  (632) 
CHEMBL1201862

>  <bao_format>  (632) 
BAO_0000019

>  <data_validity_description>  (632) 
None

>  <activity_id>  (632) 
5408052

>  <standard_type>  (632) 
IC50

>  <target_chembl_id>  (632) 
CHEMBL233

>  <data_validity_comment>  (632) 
None

>  <published_value>  (632) 
15

>  <document_year>  (632) 
None

>  <target_pref_name>  (632) 
Mu opioid receptor

>  <assay_chembl_id>  (632) 
CHEMBL1738030

>  <standard_relation>  (632) 
=

>  <assay_description>  (632) 
PUBCHEM_BIOASSAY: SAR Analysis of Antagonists of the MOR Receptor using an Image-Based Assay - Set 3. (Class of assay: confirmatory) [Related pubchem assays (depositor defined):AID1777, AID1785, AID1786, AID1966, AID2133, AID2136, AID2284, AID2285, AID2420]

>  <published_relation>  (632) 
=

>  <standard_value>  (632) 
15000

>  <qudt_units>  (632) 
http://www.openphacts.org/units/Nanomolar

>  <target_tax_id>  (632) 
9606

>  <bao_label>  (632) 
assay format

>  <published_units>  (632) 
uM

>  <pchembl_value>  (632) 
4.82

>  <published_type>  (632) 
IC50

>  <activity_comment>  (632) 
inactive

$$$$

     RDKit          

 36 39  0  0  0  0  0  0  0  0999 V2000
    0.0000    0.0000    0.0000 C   0  0  0  0  0  0  0  0  0  0  0  0
    0.0000    0.0000    0.0000 C   0  0  0  0  0  0  0  0  0  0  0  0
    0.0000    0.0000    0.0000 C   0  0  0  0  0  0  0  0  0  0  0  0
    0.0000    0.0000    0.0000 N   0  0  0  0  0  0  0  0  0  0  0  0
    0.0000    0.0000    0.0000 C   0  0  0  0  0  0  0  0  0  0  0  0
    0.0000    0.0000    0.0000 C   0  0  0  0  0  0  0  0  0  0  0  0
    0.0000    0.0000    0.0000 N   0  0  0  0  0  0  0  0  0  0  0  0
    0.0000    0.0000    0.0000 C   0  0  0  0  0  0  0  0  0  0  0  0
    0.0000    0.0000    0.0000 O   0  0  0  0  0  0  0  0  0  0  0  0
    0.0000    0.0000    0.0000 C   0  0  0  0  0  0  0  0  0  0  0  0
    0.0000    0.0000    0.0000 C   0  0  0  0  0  0  0  0  0  0  0  0
    0.0000    0.0000    0.0000 C   0  0  0  0  0  0  0  0  0  0  0  0
    0.0000    0.0000    0.0000 C   0  0  0  0  0  0  0  0  0  0  0  0
    0.0000    0.0000    0.0000 C   0  0  0  0  0  0  0  0  0  0  0  0
    0.0000    0.0000    0.0000 C   0  0  0  0  0  0  0  0  0  0  0  0
    0.0000    0.0000    0.0000 N   0  0  0  0  0  0  0  0  0  0  0  0
    0.0000    0.0000    0.0000 C   0  0  0  0  0  0  0  0  0  0  0  0
    0.0000    0.0000    0.0000 C   0  0  0  0  0  0  0  0  0  0  0  0
    0.0000    0.0000    0.0000 C   0  0  0  0  0  0  0  0  0  0  0  0
    0.0000    0.0000    0.0000 S   0  0  0  0  0  0  0  0  0  0  0  0
    0.0000    0.0000    0.0000 O   0  0  0  0  0  0  0  0  0  0  0  0
    0.0000    0.0000    0.0000 O   0  0  0  0  0  0  0  0  0  0  0  0
    0.0000    0.0000    0.0000 C   0  0  0  0  0  0  0  0  0  0  0  0
    0.0000    0.0000    0.0000 C   0  0  0  0  0  0  0  0  0  0  0  0
    0.0000    0.0000    0.0000 C   0  0  0  0  0  0  0  0  0  0  0  0
    0.0000    0.0000    0.0000 C   0  0  0  0  0  0  0  0  0  0  0  0
    0.0000    0.0000    0.0000 C   0  0  0  0  0  0  0  0  0  0  0  0
    0.0000    0.0000    0.0000 C   0  0  0  0  0  0  0  0  0  0  0  0
    0.0000    0.0000    0.0000 C   0  0  0  0  0  0  0  0  0  0  0  0
    0.0000    0.0000    0.0000 C   0  0  0  0  0  0  0  0  0  0  0  0
    0.0000    0.0000    0.0000 C   0  0  0  0  0  0  0  0  0  0  0  0
    0.0000    0.0000    0.0000 C   0  0  0  0  0  0  0  0  0  0  0  0
    0.0000    0.0000    0.0000 C   0  0  0  0  0  0  0  0  0  0  0  0
    0.0000    0.0000    0.0000 C   0  0  0  0  0  0  0  0  0  0  0  0
    0.0000    0.0000    0.0000 C   0  0  0  0  0  0  0  0  0  0  0  0
    0.0000    0.0000    0.0000 C   0  0  0  0  0  0  0  0  0  0  0  0
  1  2  1  0
  2  3  1  0
  2  4  1  0
  4  5  1  0
  5  6  1  0
  6  7  1  0
  7  8  1  0
  8  9  2  0
  8 10  1  0
 10 11  2  0
 11 12  1  0
 12 13  2  0
 13 14  1  0
 14 15  1  0
 15 16  1  0
 16 17  1  0
 17 18  1  0
 18 19  2  0
 16 20  1  0
 20 21  2  0
 20 22  2  0
 20 23  1  0
 23 24  2  0
 24 25  1  0
 25 26  2  0
 26 27  1  0
 26 28  1  0
 28 29  2  0
  4 30  1  0
 30 31  1  0
 31 32  2  0
 32 33  1  0
 33 34  2  0
 34 35  1  0
 35 36  2  0
 19 10  1  0
 18 13  1  0
 29 23  1  0
 36 31  1  0
M  END
>  <pIC50>  (633) 
5.54

>  <ChEMBL_ID>  (633) 
CHEMBL1718184

>  <document_journal>  (633) 
None

>  <bao_endpoint>  (633) 
BAO_0000190

>  <potential_duplicate>  (633) 
False

>  <uo_units>  (633) 
UO_0000065

>  <canonical_smiles>  (633) 
CC(C)N(CCNC(=O)c1ccc2CCN(Cc2c1)S(=O)(=O)c3ccc(C)cc3)Cc4ccccc4

>  <parent_molecule_chembl_id>  (633) 
CHEMBL1718184

>  <assay_type>  (633) 
F

>  <src_id>  (633) 
7

>  <ligand_efficiency>  (633) 
None

>  <standard_flag>  (633) 
True

>  <molecule_chembl_id>  (633) 
CHEMBL1718184

>  <target_organism>  (633) 
Homo sapiens

>  <standard_units>  (633) 
nM

>  <record_id>  (633) 
1389290

>  <document_chembl_id>  (633) 
CHEMBL1201862

>  <bao_format>  (633) 
BAO_0000019

>  <data_validity_description>  (633) 
None

>  <activity_id>  (633) 
5408053

>  <standard_type>  (633) 
IC50

>  <target_chembl_id>  (633) 
CHEMBL233

>  <data_validity_comment>  (633) 
None

>  <published_value>  (633) 
2.89

>  <document_year>  (633) 
None

>  <target_pref_name>  (633) 
Mu opioid receptor

>  <assay_chembl_id>  (633) 
CHEMBL1738030

>  <standard_relation>  (633) 
=

>  <assay_description>  (633) 
PUBCHEM_BIOASSAY: SAR Analysis of Antagonists of the MOR Receptor using an Image-Based Assay - Set 3. (Class of assay: confirmatory) [Related pubchem assays (depositor defined):AID1777, AID1785, AID1786, AID1966, AID2133, AID2136, AID2284, AID2285, AID2420]

>  <published_relation>  (633) 
=

>  <standard_value>  (633) 
2890

>  <qudt_units>  (633) 
http://www.openphacts.org/units/Nanomolar

>  <target_tax_id>  (633) 
9606

>  <bao_label>  (633) 
assay format

>  <published_units>  (633) 
uM

>  <pchembl_value>  (633) 
5.54

>  <published_type>  (633) 
IC50

>  <activity_comment>  (633) 
Active

$$$$

     RDKit          

 35 37  0  0  0  0  0  0  0  0999 V2000
    0.0000    0.0000    0.0000 C   0  0  0  0  0  0  0  0  0  0  0  0
    0.0000    0.0000    0.0000 O   0  0  0  0  0  0  0  0  0  0  0  0
    0.0000    0.0000    0.0000 C   0  0  0  0  0  0  0  0  0  0  0  0
    0.0000    0.0000    0.0000 C   0  0  0  0  0  0  0  0  0  0  0  0
    0.0000    0.0000    0.0000 C   0  0  0  0  0  0  0  0  0  0  0  0
    0.0000    0.0000    0.0000 C   0  0  0  0  0  0  0  0  0  0  0  0
    0.0000    0.0000    0.0000 C   0  0  0  0  0  0  0  0  0  0  0  0
    0.0000    0.0000    0.0000 C   0  0  0  0  0  0  0  0  0  0  0  0
    0.0000    0.0000    0.0000 S   0  0  0  0  0  0  0  0  0  0  0  0
    0.0000    0.0000    0.0000 O   0  0  0  0  0  0  0  0  0  0  0  0
    0.0000    0.0000    0.0000 O   0  0  0  0  0  0  0  0  0  0  0  0
    0.0000    0.0000    0.0000 N   0  0  0  0  0  0  0  0  0  0  0  0
    0.0000    0.0000    0.0000 C   0  0  0  0  0  0  0  0  0  0  0  0
    0.0000    0.0000    0.0000 C   0  0  0  0  0  0  0  0  0  0  0  0
    0.0000    0.0000    0.0000 C   0  0  0  0  0  0  0  0  0  0  0  0
    0.0000    0.0000    0.0000 C   0  0  0  0  0  0  0  0  0  0  0  0
    0.0000    0.0000    0.0000 C   0  0  0  0  0  0  0  0  0  0  0  0
    0.0000    0.0000    0.0000 C   0  0  0  0  0  0  0  0  0  0  0  0
    0.0000    0.0000    0.0000 C   0  0  0  0  0  0  0  0  0  0  0  0
    0.0000    0.0000    0.0000 C   0  0  0  0  0  0  0  0  0  0  0  0
    0.0000    0.0000    0.0000 O   0  0  0  0  0  0  0  0  0  0  0  0
    0.0000    0.0000    0.0000 N   0  0  0  0  0  0  0  0  0  0  0  0
    0.0000    0.0000    0.0000 C   0  0  0  0  0  0  0  0  0  0  0  0
    0.0000    0.0000    0.0000 C   0  0  0  0  0  0  0  0  0  0  0  0
    0.0000    0.0000    0.0000 N   0  0  0  0  0  0  0  0  0  0  0  0
    0.0000    0.0000    0.0000 C   0  0  0  0  0  0  0  0  0  0  0  0
    0.0000    0.0000    0.0000 C   0  0  0  0  0  0  0  0  0  0  0  0
    0.0000    0.0000    0.0000 C   0  0  0  0  0  0  0  0  0  0  0  0
    0.0000    0.0000    0.0000 C   0  0  0  0  0  0  0  0  0  0  0  0
    0.0000    0.0000    0.0000 C   0  0  0  0  0  0  0  0  0  0  0  0
    0.0000    0.0000    0.0000 C   0  0  0  0  0  0  0  0  0  0  0  0
    0.0000    0.0000    0.0000 C   0  0  0  0  0  0  0  0  0  0  0  0
    0.0000    0.0000    0.0000 C   0  0  0  0  0  0  0  0  0  0  0  0
    0.0000    0.0000    0.0000 C   0  0  0  0  0  0  0  0  0  0  0  0
    0.0000    0.0000    0.0000 C   0  0  0  0  0  0  0  0  0  0  0  0
  1  2  1  0
  2  3  1  0
  3  4  2  0
  4  5  1  0
  5  6  2  0
  6  7  1  0
  7  8  2  0
  6  9  1  0
  9 10  2  0
  9 11  2  0
  9 12  1  0
 12 13  1  0
 13 14  1  0
 14 15  2  0
 15 16  1  0
 16 17  2  0
 17 18  1  0
 18 19  2  0
 17 20  1  0
 20 21  2  0
 20 22  1  0
 22 23  1  0
 23 24  1  0
 24 25  1  0
 25 26  1  0
 26 27  1  0
 27 28  2  0
 28 29  1  0
 29 30  2  0
 30 31  1  0
 31 32  2  0
 25 33  1  0
 33 34  1  0
 33 35  1  0
  8  3  1  0
 19 14  1  0
 32 27  1  0
M  END
>  <pIC50>  (634) 
5.02

>  <ChEMBL_ID>  (634) 
CHEMBL1713635

>  <document_journal>  (634) 
None

>  <bao_endpoint>  (634) 
BAO_0000190

>  <potential_duplicate>  (634) 
False

>  <uo_units>  (634) 
UO_0000065

>  <canonical_smiles>  (634) 
COc1ccc(cc1)S(=O)(=O)NCc2ccc(cc2)C(=O)NCCN(Cc3ccccc3)C(C)C

>  <parent_molecule_chembl_id>  (634) 
CHEMBL1713635

>  <assay_type>  (634) 
F

>  <src_id>  (634) 
7

>  <ligand_efficiency>  (634) 
None

>  <standard_flag>  (634) 
True

>  <molecule_chembl_id>  (634) 
CHEMBL1713635

>  <target_organism>  (634) 
Homo sapiens

>  <standard_units>  (634) 
nM

>  <record_id>  (634) 
1386281

>  <document_chembl_id>  (634) 
CHEMBL1201862

>  <bao_format>  (634) 
BAO_0000019

>  <data_validity_description>  (634) 
None

>  <activity_id>  (634) 
5408054

>  <standard_type>  (634) 
IC50

>  <target_chembl_id>  (634) 
CHEMBL233

>  <data_validity_comment>  (634) 
None

>  <published_value>  (634) 
9.6

>  <document_year>  (634) 
None

>  <target_pref_name>  (634) 
Mu opioid receptor

>  <assay_chembl_id>  (634) 
CHEMBL1738030

>  <standard_relation>  (634) 
=

>  <assay_description>  (634) 
PUBCHEM_BIOASSAY: SAR Analysis of Antagonists of the MOR Receptor using an Image-Based Assay - Set 3. (Class of assay: confirmatory) [Related pubchem assays (depositor defined):AID1777, AID1785, AID1786, AID1966, AID2133, AID2136, AID2284, AID2285, AID2420]

>  <published_relation>  (634) 
=

>  <standard_value>  (634) 
9600

>  <qudt_units>  (634) 
http://www.openphacts.org/units/Nanomolar

>  <target_tax_id>  (634) 
9606

>  <bao_label>  (634) 
assay format

>  <published_units>  (634) 
uM

>  <pchembl_value>  (634) 
5.02

>  <published_type>  (634) 
IC50

>  <activity_comment>  (634) 
Active

$$$$

     RDKit          

 34 36  0  0  0  0  0  0  0  0999 V2000
    0.0000    0.0000    0.0000 C   0  0  0  0  0  0  0  0  0  0  0  0
    0.0000    0.0000    0.0000 C   0  0  0  0  0  0  0  0  0  0  0  0
    0.0000    0.0000    0.0000 C   0  0  0  0  0  0  0  0  0  0  0  0
    0.0000    0.0000    0.0000 N   0  0  0  0  0  0  0  0  0  0  0  0
    0.0000    0.0000    0.0000 C   0  0  0  0  0  0  0  0  0  0  0  0
    0.0000    0.0000    0.0000 C   0  0  0  0  0  0  0  0  0  0  0  0
    0.0000    0.0000    0.0000 N   0  0  0  0  0  0  0  0  0  0  0  0
    0.0000    0.0000    0.0000 C   0  0  0  0  0  0  0  0  0  0  0  0
    0.0000    0.0000    0.0000 O   0  0  0  0  0  0  0  0  0  0  0  0
    0.0000    0.0000    0.0000 C   0  0  0  0  0  0  0  0  0  0  0  0
    0.0000    0.0000    0.0000 C   0  0  0  0  0  0  0  0  0  0  0  0
    0.0000    0.0000    0.0000 C   0  0  0  0  0  0  0  0  0  0  0  0
    0.0000    0.0000    0.0000 C   0  0  0  0  0  0  0  0  0  0  0  0
    0.0000    0.0000    0.0000 C   0  0  0  0  0  0  0  0  0  0  0  0
    0.0000    0.0000    0.0000 N   0  0  0  0  0  0  0  0  0  0  0  0
    0.0000    0.0000    0.0000 S   0  0  0  0  0  0  0  0  0  0  0  0
    0.0000    0.0000    0.0000 O   0  0  0  0  0  0  0  0  0  0  0  0
    0.0000    0.0000    0.0000 O   0  0  0  0  0  0  0  0  0  0  0  0
    0.0000    0.0000    0.0000 C   0  0  0  0  0  0  0  0  0  0  0  0
    0.0000    0.0000    0.0000 C   0  0  0  0  0  0  0  0  0  0  0  0
    0.0000    0.0000    0.0000 C   0  0  0  0  0  0  0  0  0  0  0  0
    0.0000    0.0000    0.0000 C   0  0  0  0  0  0  0  0  0  0  0  0
    0.0000    0.0000    0.0000 C   0  0  0  0  0  0  0  0  0  0  0  0
    0.0000    0.0000    0.0000 C   0  0  0  0  0  0  0  0  0  0  0  0
    0.0000    0.0000    0.0000 C   0  0  0  0  0  0  0  0  0  0  0  0
    0.0000    0.0000    0.0000 C   0  0  0  0  0  0  0  0  0  0  0  0
    0.0000    0.0000    0.0000 C   0  0  0  0  0  0  0  0  0  0  0  0
    0.0000    0.0000    0.0000 C   0  0  0  0  0  0  0  0  0  0  0  0
    0.0000    0.0000    0.0000 C   0  0  0  0  0  0  0  0  0  0  0  0
    0.0000    0.0000    0.0000 C   0  0  0  0  0  0  0  0  0  0  0  0
    0.0000    0.0000    0.0000 C   0  0  0  0  0  0  0  0  0  0  0  0
    0.0000    0.0000    0.0000 C   0  0  0  0  0  0  0  0  0  0  0  0
    0.0000    0.0000    0.0000 C   0  0  0  0  0  0  0  0  0  0  0  0
    0.0000    0.0000    0.0000 C   0  0  0  0  0  0  0  0  0  0  0  0
  1  2  1  0
  2  3  1  0
  2  4  1  0
  4  5  1  0
  5  6  1  0
  6  7  1  0
  7  8  1  0
  8  9  2  0
  8 10  1  0
 10 11  2  0
 11 12  1  0
 12 13  2  0
 13 14  1  0
 14 15  1  0
 15 16  1  0
 16 17  2  0
 16 18  2  0
 16 19  1  0
 19 20  2  0
 20 21  1  0
 21 22  2  0
 22 23  1  0
 22 24  1  0
 24 25  2  0
 13 26  1  0
 26 27  2  0
  4 28  1  0
 28 29  1  0
 29 30  2  0
 30 31  1  0
 31 32  2  0
 32 33  1  0
 33 34  2  0
 27 10  1  0
 25 19  1  0
 34 29  1  0
M  END
>  <pIC50>  (635) 
4.85

>  <ChEMBL_ID>  (635) 
CHEMBL1455766

>  <document_journal>  (635) 
None

>  <bao_endpoint>  (635) 
BAO_0000190

>  <potential_duplicate>  (635) 
False

>  <uo_units>  (635) 
UO_0000065

>  <canonical_smiles>  (635) 
CC(C)N(CCNC(=O)c1ccc(CNS(=O)(=O)c2ccc(C)cc2)cc1)Cc3ccccc3

>  <parent_molecule_chembl_id>  (635) 
CHEMBL1455766

>  <assay_type>  (635) 
F

>  <src_id>  (635) 
7

>  <ligand_efficiency>  (635) 
None

>  <standard_flag>  (635) 
True

>  <molecule_chembl_id>  (635) 
CHEMBL1455766

>  <target_organism>  (635) 
Homo sapiens

>  <standard_units>  (635) 
nM

>  <record_id>  (635) 
1386277

>  <document_chembl_id>  (635) 
CHEMBL1201862

>  <bao_format>  (635) 
BAO_0000019

>  <data_validity_description>  (635) 
None

>  <activity_id>  (635) 
5408055

>  <standard_type>  (635) 
IC50

>  <target_chembl_id>  (635) 
CHEMBL233

>  <data_validity_comment>  (635) 
None

>  <published_value>  (635) 
14

>  <document_year>  (635) 
None

>  <target_pref_name>  (635) 
Mu opioid receptor

>  <assay_chembl_id>  (635) 
CHEMBL1738030

>  <standard_relation>  (635) 
=

>  <assay_description>  (635) 
PUBCHEM_BIOASSAY: SAR Analysis of Antagonists of the MOR Receptor using an Image-Based Assay - Set 3. (Class of assay: confirmatory) [Related pubchem assays (depositor defined):AID1777, AID1785, AID1786, AID1966, AID2133, AID2136, AID2284, AID2285, AID2420]

>  <published_relation>  (635) 
=

>  <standard_value>  (635) 
14000

>  <qudt_units>  (635) 
http://www.openphacts.org/units/Nanomolar

>  <target_tax_id>  (635) 
9606

>  <bao_label>  (635) 
assay format

>  <published_units>  (635) 
uM

>  <pchembl_value>  (635) 
4.85

>  <published_type>  (635) 
IC50

>  <activity_comment>  (635) 
inactive

$$$$

     RDKit          

 34 36  0  0  0  0  0  0  0  0999 V2000
    0.0000    0.0000    0.0000 C   0  0  0  0  0  0  0  0  0  0  0  0
    0.0000    0.0000    0.0000 C   0  0  0  0  0  0  0  0  0  0  0  0
    0.0000    0.0000    0.0000 N   0  0  0  0  0  0  0  0  0  0  0  0
    0.0000    0.0000    0.0000 C   0  0  0  0  0  0  0  0  0  0  0  0
    0.0000    0.0000    0.0000 C   0  0  0  0  0  0  0  0  0  0  0  0
    0.0000    0.0000    0.0000 N   0  0  0  0  0  0  0  0  0  0  0  0
    0.0000    0.0000    0.0000 C   0  0  0  0  0  0  0  0  0  0  0  0
    0.0000    0.0000    0.0000 O   0  0  0  0  0  0  0  0  0  0  0  0
    0.0000    0.0000    0.0000 C   0  0  0  0  0  0  0  0  0  0  0  0
    0.0000    0.0000    0.0000 C   0  0  0  0  0  0  0  0  0  0  0  0
    0.0000    0.0000    0.0000 C   0  0  0  0  0  0  0  0  0  0  0  0
    0.0000    0.0000    0.0000 C   0  0  0  0  0  0  0  0  0  0  0  0
    0.0000    0.0000    0.0000 C   0  0  0  0  0  0  0  0  0  0  0  0
    0.0000    0.0000    0.0000 N   0  0  0  0  0  0  0  0  0  0  0  0
    0.0000    0.0000    0.0000 S   0  0  0  0  0  0  0  0  0  0  0  0
    0.0000    0.0000    0.0000 O   0  0  0  0  0  0  0  0  0  0  0  0
    0.0000    0.0000    0.0000 O   0  0  0  0  0  0  0  0  0  0  0  0
    0.0000    0.0000    0.0000 C   0  0  0  0  0  0  0  0  0  0  0  0
    0.0000    0.0000    0.0000 C   0  0  0  0  0  0  0  0  0  0  0  0
    0.0000    0.0000    0.0000 C   0  0  0  0  0  0  0  0  0  0  0  0
    0.0000    0.0000    0.0000 C   0  0  0  0  0  0  0  0  0  0  0  0
    0.0000    0.0000    0.0000 O   0  0  0  0  0  0  0  0  0  0  0  0
    0.0000    0.0000    0.0000 C   0  0  0  0  0  0  0  0  0  0  0  0
    0.0000    0.0000    0.0000 C   0  0  0  0  0  0  0  0  0  0  0  0
    0.0000    0.0000    0.0000 C   0  0  0  0  0  0  0  0  0  0  0  0
    0.0000    0.0000    0.0000 C   0  0  0  0  0  0  0  0  0  0  0  0
    0.0000    0.0000    0.0000 C   0  0  0  0  0  0  0  0  0  0  0  0
    0.0000    0.0000    0.0000 C   0  0  0  0  0  0  0  0  0  0  0  0
    0.0000    0.0000    0.0000 C   0  0  0  0  0  0  0  0  0  0  0  0
    0.0000    0.0000    0.0000 C   0  0  0  0  0  0  0  0  0  0  0  0
    0.0000    0.0000    0.0000 C   0  0  0  0  0  0  0  0  0  0  0  0
    0.0000    0.0000    0.0000 C   0  0  0  0  0  0  0  0  0  0  0  0
    0.0000    0.0000    0.0000 C   0  0  0  0  0  0  0  0  0  0  0  0
    0.0000    0.0000    0.0000 C   0  0  0  0  0  0  0  0  0  0  0  0
  1  2  1  0
  2  3  1  0
  3  4  1  0
  4  5  1  0
  5  6  1  0
  6  7  1  0
  7  8  2  0
  7  9  1  0
  9 10  2  0
 10 11  1  0
 11 12  2  0
 12 13  1  0
 13 14  1  0
 14 15  1  0
 15 16  2  0
 15 17  2  0
 15 18  1  0
 18 19  2  0
 19 20  1  0
 20 21  2  0
 21 22  1  0
 22 23  1  0
 21 24  1  0
 24 25  2  0
 12 26  1  0
 26 27  2  0
  3 28  1  0
 28 29  1  0
 29 30  2  0
 30 31  1  0
 31 32  2  0
 32 33  1  0
 33 34  2  0
 27  9  1  0
 25 18  1  0
 34 29  1  0
M  END
>  <pIC50>  (636) 
4.9

>  <ChEMBL_ID>  (636) 
CHEMBL1699035

>  <document_journal>  (636) 
None

>  <bao_endpoint>  (636) 
BAO_0000190

>  <potential_duplicate>  (636) 
False

>  <uo_units>  (636) 
UO_0000065

>  <canonical_smiles>  (636) 
CCN(CCNC(=O)c1ccc(CNS(=O)(=O)c2ccc(OC)cc2)cc1)Cc3ccccc3

>  <parent_molecule_chembl_id>  (636) 
CHEMBL1699035

>  <assay_type>  (636) 
F

>  <src_id>  (636) 
7

>  <ligand_efficiency>  (636) 
None

>  <standard_flag>  (636) 
True

>  <molecule_chembl_id>  (636) 
CHEMBL1699035

>  <target_organism>  (636) 
Homo sapiens

>  <standard_units>  (636) 
nM

>  <record_id>  (636) 
1386291

>  <document_chembl_id>  (636) 
CHEMBL1201862

>  <bao_format>  (636) 
BAO_0000019

>  <data_validity_description>  (636) 
None

>  <activity_id>  (636) 
5408056

>  <standard_type>  (636) 
IC50

>  <target_chembl_id>  (636) 
CHEMBL233

>  <data_validity_comment>  (636) 
None

>  <published_value>  (636) 
12.6

>  <document_year>  (636) 
None

>  <target_pref_name>  (636) 
Mu opioid receptor

>  <assay_chembl_id>  (636) 
CHEMBL1738030

>  <standard_relation>  (636) 
=

>  <assay_description>  (636) 
PUBCHEM_BIOASSAY: SAR Analysis of Antagonists of the MOR Receptor using an Image-Based Assay - Set 3. (Class of assay: confirmatory) [Related pubchem assays (depositor defined):AID1777, AID1785, AID1786, AID1966, AID2133, AID2136, AID2284, AID2285, AID2420]

>  <published_relation>  (636) 
=

>  <standard_value>  (636) 
12600

>  <qudt_units>  (636) 
http://www.openphacts.org/units/Nanomolar

>  <target_tax_id>  (636) 
9606

>  <bao_label>  (636) 
assay format

>  <published_units>  (636) 
uM

>  <pchembl_value>  (636) 
4.9

>  <published_type>  (636) 
IC50

>  <activity_comment>  (636) 
inactive

$$$$

     RDKit          

 34 38  0  0  0  0  0  0  0  0999 V2000
    0.0000    0.0000    0.0000 C   0  0  0  0  0  0  0  0  0  0  0  0
    0.0000    0.0000    0.0000 C   0  0  0  0  0  0  0  0  0  0  0  0
    0.0000    0.0000    0.0000 C   0  0  0  0  0  0  0  0  0  0  0  0
    0.0000    0.0000    0.0000 C   0  0  0  0  0  0  0  0  0  0  0  0
    0.0000    0.0000    0.0000 C   0  0  0  0  0  0  0  0  0  0  0  0
    0.0000    0.0000    0.0000 Cl  0  0  0  0  0  0  0  0  0  0  0  0
    0.0000    0.0000    0.0000 C   0  0  0  0  0  0  0  0  0  0  0  0
    0.0000    0.0000    0.0000 C   0  0  0  0  0  0  0  0  0  0  0  0
    0.0000    0.0000    0.0000 N   0  0  0  0  0  0  0  0  0  0  0  0
    0.0000    0.0000    0.0000 C   0  0  0  0  0  0  0  0  0  0  0  0
    0.0000    0.0000    0.0000 C   0  0  0  0  0  0  0  0  0  0  0  0
    0.0000    0.0000    0.0000 N   0  0  0  0  0  0  0  0  0  0  0  0
    0.0000    0.0000    0.0000 C   0  0  0  0  0  0  0  0  0  0  0  0
    0.0000    0.0000    0.0000 C   0  0  0  0  0  0  0  0  0  0  0  0
    0.0000    0.0000    0.0000 N   0  0  0  0  0  0  0  0  0  0  0  0
    0.0000    0.0000    0.0000 C   0  0  0  0  0  0  0  0  0  0  0  0
    0.0000    0.0000    0.0000 O   0  0  0  0  0  0  0  0  0  0  0  0
    0.0000    0.0000    0.0000 C   0  0  0  0  0  0  0  0  0  0  0  0
    0.0000    0.0000    0.0000 N   0  0  0  0  0  0  0  0  0  0  0  0
    0.0000    0.0000    0.0000 C   0  0  0  0  0  0  0  0  0  0  0  0
    0.0000    0.0000    0.0000 O   0  0  0  0  0  0  0  0  0  0  0  0
    0.0000    0.0000    0.0000 C   0  0  0  0  0  0  0  0  0  0  0  0
    0.0000    0.0000    0.0000 C   0  0  0  0  0  0  0  0  0  0  0  0
    0.0000    0.0000    0.0000 C   0  0  0  0  0  0  0  0  0  0  0  0
    0.0000    0.0000    0.0000 C   0  0  0  0  0  0  0  0  0  0  0  0
    0.0000    0.0000    0.0000 N   0  0  0  0  0  0  0  0  0  0  0  0
    0.0000    0.0000    0.0000 C   0  0  0  0  0  0  0  0  0  0  0  0
    0.0000    0.0000    0.0000 C   0  0  0  0  0  0  0  0  0  0  0  0
    0.0000    0.0000    0.0000 C   0  0  0  0  0  0  0  0  0  0  0  0
    0.0000    0.0000    0.0000 C   0  0  0  0  0  0  0  0  0  0  0  0
    0.0000    0.0000    0.0000 N   0  0  0  0  0  0  0  0  0  0  0  0
    0.0000    0.0000    0.0000 C   0  0  0  0  0  0  0  0  0  0  0  0
    0.0000    0.0000    0.0000 C   0  0  0  0  0  0  0  0  0  0  0  0
    0.0000    0.0000    0.0000 C   0  0  0  0  0  0  0  0  0  0  0  0
  1  2  1  0
  2  3  2  0
  3  4  1  0
  4  5  2  0
  5  6  1  0
  5  7  1  0
  7  8  2  0
  8  9  1  0
  9 10  1  0
 10 11  1  0
 11 12  1  0
 12 13  1  0
 13 14  1  0
 14 15  1  0
 15 16  1  0
 16 17  2  0
 16 18  1  0
 18 19  1  0
 19 20  1  0
 20 21  2  0
 20 22  1  0
 22 23  2  0
 23 24  1  0
 24 25  2  0
 25 26  1  0
 26 27  1  0
 27 28  2  0
 28 29  1  0
 29 30  2  0
 30 31  1  0
 31 32  2  0
 12 33  1  0
 33 34  1  0
  8  2  1  0
 34  9  1  0
 32 19  1  0
 26 22  1  0
 32 27  1  0
M  END
>  <pIC50>  (637) 
5.4

>  <ChEMBL_ID>  (637) 
CHEMBL1699195

>  <document_journal>  (637) 
None

>  <bao_endpoint>  (637) 
BAO_0000190

>  <potential_duplicate>  (637) 
False

>  <uo_units>  (637) 
UO_0000065

>  <canonical_smiles>  (637) 
Cc1ccc(Cl)cc1N2CCN(CCNC(=O)CN3C(=O)c4cccn4c5cccnc35)CC2

>  <parent_molecule_chembl_id>  (637) 
CHEMBL1699195

>  <assay_type>  (637) 
F

>  <src_id>  (637) 
7

>  <ligand_efficiency>  (637) 
None

>  <standard_flag>  (637) 
True

>  <molecule_chembl_id>  (637) 
CHEMBL1699195

>  <target_organism>  (637) 
Homo sapiens

>  <standard_units>  (637) 
nM

>  <record_id>  (637) 
1386333

>  <document_chembl_id>  (637) 
CHEMBL1201862

>  <bao_format>  (637) 
BAO_0000019

>  <data_validity_description>  (637) 
None

>  <activity_id>  (637) 
5408058

>  <standard_type>  (637) 
IC50

>  <target_chembl_id>  (637) 
CHEMBL233

>  <data_validity_comment>  (637) 
None

>  <published_value>  (637) 
3.98

>  <document_year>  (637) 
None

>  <target_pref_name>  (637) 
Mu opioid receptor

>  <assay_chembl_id>  (637) 
CHEMBL1738030

>  <standard_relation>  (637) 
=

>  <assay_description>  (637) 
PUBCHEM_BIOASSAY: SAR Analysis of Antagonists of the MOR Receptor using an Image-Based Assay - Set 3. (Class of assay: confirmatory) [Related pubchem assays (depositor defined):AID1777, AID1785, AID1786, AID1966, AID2133, AID2136, AID2284, AID2285, AID2420]

>  <published_relation>  (637) 
=

>  <standard_value>  (637) 
3980

>  <qudt_units>  (637) 
http://www.openphacts.org/units/Nanomolar

>  <target_tax_id>  (637) 
9606

>  <bao_label>  (637) 
assay format

>  <published_units>  (637) 
uM

>  <pchembl_value>  (637) 
5.4

>  <published_type>  (637) 
IC50

>  <activity_comment>  (637) 
Active

$$$$

     RDKit          

 35 37  0  0  0  0  0  0  0  0999 V2000
    0.0000    0.0000    0.0000 C   0  0  0  0  0  0  0  0  0  0  0  0
    0.0000    0.0000    0.0000 C   0  0  0  0  0  0  0  0  0  0  0  0
    0.0000    0.0000    0.0000 C   0  0  0  0  0  0  0  0  0  0  0  0
    0.0000    0.0000    0.0000 C   0  0  0  0  0  0  0  0  0  0  0  0
    0.0000    0.0000    0.0000 C   0  0  0  0  0  0  0  0  0  0  0  0
    0.0000    0.0000    0.0000 C   0  0  0  0  0  0  0  0  0  0  0  0
    0.0000    0.0000    0.0000 C   0  0  0  0  0  0  0  0  0  0  0  0
    0.0000    0.0000    0.0000 S   0  0  0  0  0  0  0  0  0  0  0  0
    0.0000    0.0000    0.0000 O   0  0  0  0  0  0  0  0  0  0  0  0
    0.0000    0.0000    0.0000 O   0  0  0  0  0  0  0  0  0  0  0  0
    0.0000    0.0000    0.0000 N   0  0  0  0  0  0  0  0  0  0  0  0
    0.0000    0.0000    0.0000 C   0  0  0  0  0  0  0  0  0  0  0  0
    0.0000    0.0000    0.0000 C   0  0  0  0  0  0  0  0  0  0  0  0
    0.0000    0.0000    0.0000 C   0  0  0  0  0  0  0  0  0  0  0  0
    0.0000    0.0000    0.0000 C   0  0  0  0  0  0  0  0  0  0  0  0
    0.0000    0.0000    0.0000 C   0  0  0  0  0  0  0  0  0  0  0  0
    0.0000    0.0000    0.0000 C   0  0  0  0  0  0  0  0  0  0  0  0
    0.0000    0.0000    0.0000 C   0  0  0  0  0  0  0  0  0  0  0  0
    0.0000    0.0000    0.0000 C   0  0  0  0  0  0  0  0  0  0  0  0
    0.0000    0.0000    0.0000 O   0  0  0  0  0  0  0  0  0  0  0  0
    0.0000    0.0000    0.0000 N   0  0  0  0  0  0  0  0  0  0  0  0
    0.0000    0.0000    0.0000 C   0  0  0  0  0  0  0  0  0  0  0  0
    0.0000    0.0000    0.0000 C   0  0  0  0  0  0  0  0  0  0  0  0
    0.0000    0.0000    0.0000 N   0  0  0  0  0  0  0  0  0  0  0  0
    0.0000    0.0000    0.0000 C   0  0  0  0  0  0  0  0  0  0  0  0
    0.0000    0.0000    0.0000 C   0  0  0  0  0  0  0  0  0  0  0  0
    0.0000    0.0000    0.0000 C   0  0  0  0  0  0  0  0  0  0  0  0
    0.0000    0.0000    0.0000 C   0  0  0  0  0  0  0  0  0  0  0  0
    0.0000    0.0000    0.0000 C   0  0  0  0  0  0  0  0  0  0  0  0
    0.0000    0.0000    0.0000 C   0  0  0  0  0  0  0  0  0  0  0  0
    0.0000    0.0000    0.0000 C   0  0  0  0  0  0  0  0  0  0  0  0
    0.0000    0.0000    0.0000 C   0  0  0  0  0  0  0  0  0  0  0  0
    0.0000    0.0000    0.0000 C   0  0  0  0  0  0  0  0  0  0  0  0
    0.0000    0.0000    0.0000 C   0  0  0  0  0  0  0  0  0  0  0  0
    0.0000    0.0000    0.0000 C   0  0  0  0  0  0  0  0  0  0  0  0
  1  2  1  0
  2  3  2  0
  3  4  1  0
  4  5  2  0
  5  6  1  0
  6  7  2  0
  5  8  1  0
  8  9  2  0
  8 10  2  0
  8 11  1  0
 11 12  1  0
 12 13  1  0
 13 14  2  0
 14 15  1  0
 15 16  2  0
 16 17  1  0
 17 18  2  0
 16 19  1  0
 19 20  2  0
 19 21  1  0
 21 22  1  0
 22 23  1  0
 23 24  1  0
 24 25  1  0
 25 26  1  0
 26 27  2  0
 27 28  1  0
 28 29  2  0
 29 30  1  0
 30 31  2  0
 24 32  1  0
 32 33  1  0
 32 34  1  0
 32 35  1  0
  7  2  1  0
 18 13  1  0
 31 26  1  0
M  END
>  <pIC50>  (638) 
5.86

>  <ChEMBL_ID>  (638) 
CHEMBL1713967

>  <document_journal>  (638) 
None

>  <bao_endpoint>  (638) 
BAO_0000190

>  <potential_duplicate>  (638) 
False

>  <uo_units>  (638) 
UO_0000065

>  <canonical_smiles>  (638) 
Cc1ccc(cc1)S(=O)(=O)NCc2ccc(cc2)C(=O)NCCN(Cc3ccccc3)C(C)(C)C

>  <parent_molecule_chembl_id>  (638) 
CHEMBL1713967

>  <assay_type>  (638) 
F

>  <src_id>  (638) 
7

>  <ligand_efficiency>  (638) 
None

>  <standard_flag>  (638) 
True

>  <molecule_chembl_id>  (638) 
CHEMBL1713967

>  <target_organism>  (638) 
Homo sapiens

>  <standard_units>  (638) 
nM

>  <record_id>  (638) 
1388361

>  <document_chembl_id>  (638) 
CHEMBL1201862

>  <bao_format>  (638) 
BAO_0000019

>  <data_validity_description>  (638) 
None

>  <activity_id>  (638) 
5408059

>  <standard_type>  (638) 
IC50

>  <target_chembl_id>  (638) 
CHEMBL233

>  <data_validity_comment>  (638) 
None

>  <published_value>  (638) 
1.39

>  <document_year>  (638) 
None

>  <target_pref_name>  (638) 
Mu opioid receptor

>  <assay_chembl_id>  (638) 
CHEMBL1738030

>  <standard_relation>  (638) 
=

>  <assay_description>  (638) 
PUBCHEM_BIOASSAY: SAR Analysis of Antagonists of the MOR Receptor using an Image-Based Assay - Set 3. (Class of assay: confirmatory) [Related pubchem assays (depositor defined):AID1777, AID1785, AID1786, AID1966, AID2133, AID2136, AID2284, AID2285, AID2420]

>  <published_relation>  (638) 
=

>  <standard_value>  (638) 
1390

>  <qudt_units>  (638) 
http://www.openphacts.org/units/Nanomolar

>  <target_tax_id>  (638) 
9606

>  <bao_label>  (638) 
assay format

>  <published_units>  (638) 
uM

>  <pchembl_value>  (638) 
5.86

>  <published_type>  (638) 
IC50

>  <activity_comment>  (638) 
Active

$$$$

     RDKit          

 35 37  0  0  0  0  0  0  0  0999 V2000
    0.0000    0.0000    0.0000 C   0  0  0  0  0  0  0  0  0  0  0  0
    0.0000    0.0000    0.0000 O   0  0  0  0  0  0  0  0  0  0  0  0
    0.0000    0.0000    0.0000 C   0  0  0  0  0  0  0  0  0  0  0  0
    0.0000    0.0000    0.0000 C   0  0  0  0  0  0  0  0  0  0  0  0
    0.0000    0.0000    0.0000 C   0  0  0  0  0  0  0  0  0  0  0  0
    0.0000    0.0000    0.0000 C   0  0  0  0  0  0  0  0  0  0  0  0
    0.0000    0.0000    0.0000 C   0  0  0  0  0  0  0  0  0  0  0  0
    0.0000    0.0000    0.0000 N   0  0  0  0  0  0  0  0  0  0  0  0
    0.0000    0.0000    0.0000 C   0  0  0  0  0  0  0  0  0  0  0  0
    0.0000    0.0000    0.0000 C   0  0  0  0  0  0  0  0  0  0  0  0
    0.0000    0.0000    0.0000 N   0  0  0  0  0  0  0  0  0  0  0  0
    0.0000    0.0000    0.0000 C   0  0  0  0  0  0  0  0  0  0  0  0
    0.0000    0.0000    0.0000 O   0  0  0  0  0  0  0  0  0  0  0  0
    0.0000    0.0000    0.0000 C   0  0  0  0  0  0  0  0  0  0  0  0
    0.0000    0.0000    0.0000 C   0  0  0  0  0  0  0  0  0  0  0  0
    0.0000    0.0000    0.0000 C   0  0  0  0  0  0  0  0  0  0  0  0
    0.0000    0.0000    0.0000 C   0  0  0  0  0  0  0  0  0  0  0  0
    0.0000    0.0000    0.0000 C   0  0  0  0  0  0  0  0  0  0  0  0
    0.0000    0.0000    0.0000 N   0  0  0  0  0  0  0  0  0  0  0  0
    0.0000    0.0000    0.0000 S   0  0  0  0  0  0  0  0  0  0  0  0
    0.0000    0.0000    0.0000 O   0  0  0  0  0  0  0  0  0  0  0  0
    0.0000    0.0000    0.0000 O   0  0  0  0  0  0  0  0  0  0  0  0
    0.0000    0.0000    0.0000 C   0  0  0  0  0  0  0  0  0  0  0  0
    0.0000    0.0000    0.0000 C   0  0  0  0  0  0  0  0  0  0  0  0
    0.0000    0.0000    0.0000 C   0  0  0  0  0  0  0  0  0  0  0  0
    0.0000    0.0000    0.0000 C   0  0  0  0  0  0  0  0  0  0  0  0
    0.0000    0.0000    0.0000 C   0  0  0  0  0  0  0  0  0  0  0  0
    0.0000    0.0000    0.0000 C   0  0  0  0  0  0  0  0  0  0  0  0
    0.0000    0.0000    0.0000 C   0  0  0  0  0  0  0  0  0  0  0  0
    0.0000    0.0000    0.0000 C   0  0  0  0  0  0  0  0  0  0  0  0
    0.0000    0.0000    0.0000 C   0  0  0  0  0  0  0  0  0  0  0  0
    0.0000    0.0000    0.0000 C   0  0  0  0  0  0  0  0  0  0  0  0
    0.0000    0.0000    0.0000 C   0  0  0  0  0  0  0  0  0  0  0  0
    0.0000    0.0000    0.0000 C   0  0  0  0  0  0  0  0  0  0  0  0
    0.0000    0.0000    0.0000 C   0  0  0  0  0  0  0  0  0  0  0  0
  1  2  1  0
  2  3  1  0
  3  4  2  0
  4  5  1  0
  5  6  2  0
  6  7  1  0
  7  8  1  0
  8  9  1  0
  9 10  1  0
 10 11  1  0
 11 12  1  0
 12 13  2  0
 12 14  1  0
 14 15  2  0
 15 16  1  0
 16 17  2  0
 17 18  1  0
 18 19  1  0
 19 20  1  0
 20 21  2  0
 20 22  2  0
 20 23  1  0
 23 24  2  0
 24 25  1  0
 25 26  2  0
 26 27  1  0
 27 28  2  0
 17 29  1  0
 29 30  2  0
  8 31  1  0
 31 32  1  0
 31 33  1  0
  6 34  1  0
 34 35  2  0
 35  3  1  0
 30 14  1  0
 28 23  1  0
M  END
>  <pIC50>  (639) 
4.85

>  <ChEMBL_ID>  (639) 
CHEMBL1713943

>  <document_journal>  (639) 
None

>  <bao_endpoint>  (639) 
BAO_0000190

>  <potential_duplicate>  (639) 
False

>  <uo_units>  (639) 
UO_0000065

>  <canonical_smiles>  (639) 
COc1ccc(CN(CCNC(=O)c2ccc(CNS(=O)(=O)c3ccccc3)cc2)C(C)C)cc1

>  <parent_molecule_chembl_id>  (639) 
CHEMBL1713943

>  <assay_type>  (639) 
F

>  <src_id>  (639) 
7

>  <ligand_efficiency>  (639) 
None

>  <standard_flag>  (639) 
True

>  <molecule_chembl_id>  (639) 
CHEMBL1713943

>  <target_organism>  (639) 
Homo sapiens

>  <standard_units>  (639) 
nM

>  <record_id>  (639) 
1386719

>  <document_chembl_id>  (639) 
CHEMBL1201862

>  <bao_format>  (639) 
BAO_0000019

>  <data_validity_description>  (639) 
None

>  <activity_id>  (639) 
5408064

>  <standard_type>  (639) 
IC50

>  <target_chembl_id>  (639) 
CHEMBL233

>  <data_validity_comment>  (639) 
None

>  <published_value>  (639) 
14.3

>  <document_year>  (639) 
None

>  <target_pref_name>  (639) 
Mu opioid receptor

>  <assay_chembl_id>  (639) 
CHEMBL1738030

>  <standard_relation>  (639) 
=

>  <assay_description>  (639) 
PUBCHEM_BIOASSAY: SAR Analysis of Antagonists of the MOR Receptor using an Image-Based Assay - Set 3. (Class of assay: confirmatory) [Related pubchem assays (depositor defined):AID1777, AID1785, AID1786, AID1966, AID2133, AID2136, AID2284, AID2285, AID2420]

>  <published_relation>  (639) 
=

>  <standard_value>  (639) 
14300

>  <qudt_units>  (639) 
http://www.openphacts.org/units/Nanomolar

>  <target_tax_id>  (639) 
9606

>  <bao_label>  (639) 
assay format

>  <published_units>  (639) 
uM

>  <pchembl_value>  (639) 
4.85

>  <published_type>  (639) 
IC50

>  <activity_comment>  (639) 
inactive

$$$$

     RDKit          

 33 35  0  0  0  0  0  0  0  0999 V2000
    0.0000    0.0000    0.0000 C   0  0  0  0  0  0  0  0  0  0  0  0
    0.0000    0.0000    0.0000 C   0  0  0  0  0  0  0  0  0  0  0  0
    0.0000    0.0000    0.0000 N   0  0  0  0  0  0  0  0  0  0  0  0
    0.0000    0.0000    0.0000 C   0  0  0  0  0  0  0  0  0  0  0  0
    0.0000    0.0000    0.0000 C   0  0  0  0  0  0  0  0  0  0  0  0
    0.0000    0.0000    0.0000 N   0  0  0  0  0  0  0  0  0  0  0  0
    0.0000    0.0000    0.0000 C   0  0  0  0  0  0  0  0  0  0  0  0
    0.0000    0.0000    0.0000 O   0  0  0  0  0  0  0  0  0  0  0  0
    0.0000    0.0000    0.0000 C   0  0  0  0  0  0  0  0  0  0  0  0
    0.0000    0.0000    0.0000 C   0  0  0  0  0  0  0  0  0  0  0  0
    0.0000    0.0000    0.0000 C   0  0  0  0  0  0  0  0  0  0  0  0
    0.0000    0.0000    0.0000 C   0  0  0  0  0  0  0  0  0  0  0  0
    0.0000    0.0000    0.0000 C   0  0  0  0  0  0  0  0  0  0  0  0
    0.0000    0.0000    0.0000 N   0  0  0  0  0  0  0  0  0  0  0  0
    0.0000    0.0000    0.0000 S   0  0  0  0  0  0  0  0  0  0  0  0
    0.0000    0.0000    0.0000 O   0  0  0  0  0  0  0  0  0  0  0  0
    0.0000    0.0000    0.0000 O   0  0  0  0  0  0  0  0  0  0  0  0
    0.0000    0.0000    0.0000 C   0  0  0  0  0  0  0  0  0  0  0  0
    0.0000    0.0000    0.0000 C   0  0  0  0  0  0  0  0  0  0  0  0
    0.0000    0.0000    0.0000 C   0  0  0  0  0  0  0  0  0  0  0  0
    0.0000    0.0000    0.0000 C   0  0  0  0  0  0  0  0  0  0  0  0
    0.0000    0.0000    0.0000 Br  0  0  0  0  0  0  0  0  0  0  0  0
    0.0000    0.0000    0.0000 C   0  0  0  0  0  0  0  0  0  0  0  0
    0.0000    0.0000    0.0000 C   0  0  0  0  0  0  0  0  0  0  0  0
    0.0000    0.0000    0.0000 C   0  0  0  0  0  0  0  0  0  0  0  0
    0.0000    0.0000    0.0000 C   0  0  0  0  0  0  0  0  0  0  0  0
    0.0000    0.0000    0.0000 C   0  0  0  0  0  0  0  0  0  0  0  0
    0.0000    0.0000    0.0000 C   0  0  0  0  0  0  0  0  0  0  0  0
    0.0000    0.0000    0.0000 C   0  0  0  0  0  0  0  0  0  0  0  0
    0.0000    0.0000    0.0000 C   0  0  0  0  0  0  0  0  0  0  0  0
    0.0000    0.0000    0.0000 C   0  0  0  0  0  0  0  0  0  0  0  0
    0.0000    0.0000    0.0000 C   0  0  0  0  0  0  0  0  0  0  0  0
    0.0000    0.0000    0.0000 C   0  0  0  0  0  0  0  0  0  0  0  0
  1  2  1  0
  2  3  1  0
  3  4  1  0
  4  5  1  0
  5  6  1  0
  6  7  1  0
  7  8  2  0
  7  9  1  0
  9 10  2  0
 10 11  1  0
 11 12  2  0
 12 13  1  0
 13 14  1  0
 14 15  1  0
 15 16  2  0
 15 17  2  0
 15 18  1  0
 18 19  2  0
 19 20  1  0
 20 21  2  0
 21 22  1  0
 21 23  1  0
 23 24  2  0
 12 25  1  0
 25 26  2  0
  3 27  1  0
 27 28  1  0
 28 29  2  0
 29 30  1  0
 30 31  2  0
 31 32  1  0
 32 33  2  0
 26  9  1  0
 24 18  1  0
 33 28  1  0
M  END
>  <pIC50>  (640) 
5.07

>  <ChEMBL_ID>  (640) 
CHEMBL1719053

>  <document_journal>  (640) 
None

>  <bao_endpoint>  (640) 
BAO_0000190

>  <potential_duplicate>  (640) 
False

>  <uo_units>  (640) 
UO_0000065

>  <canonical_smiles>  (640) 
CCN(CCNC(=O)c1ccc(CNS(=O)(=O)c2ccc(Br)cc2)cc1)Cc3ccccc3

>  <parent_molecule_chembl_id>  (640) 
CHEMBL1719053

>  <assay_type>  (640) 
F

>  <src_id>  (640) 
7

>  <ligand_efficiency>  (640) 
None

>  <standard_flag>  (640) 
True

>  <molecule_chembl_id>  (640) 
CHEMBL1719053

>  <target_organism>  (640) 
Homo sapiens

>  <standard_units>  (640) 
nM

>  <record_id>  (640) 
1386292

>  <document_chembl_id>  (640) 
CHEMBL1201862

>  <bao_format>  (640) 
BAO_0000019

>  <data_validity_description>  (640) 
None

>  <activity_id>  (640) 
5408065

>  <standard_type>  (640) 
IC50

>  <target_chembl_id>  (640) 
CHEMBL233

>  <data_validity_comment>  (640) 
None

>  <published_value>  (640) 
8.46

>  <document_year>  (640) 
None

>  <target_pref_name>  (640) 
Mu opioid receptor

>  <assay_chembl_id>  (640) 
CHEMBL1738030

>  <standard_relation>  (640) 
=

>  <assay_description>  (640) 
PUBCHEM_BIOASSAY: SAR Analysis of Antagonists of the MOR Receptor using an Image-Based Assay - Set 3. (Class of assay: confirmatory) [Related pubchem assays (depositor defined):AID1777, AID1785, AID1786, AID1966, AID2133, AID2136, AID2284, AID2285, AID2420]

>  <published_relation>  (640) 
=

>  <standard_value>  (640) 
8460

>  <qudt_units>  (640) 
http://www.openphacts.org/units/Nanomolar

>  <target_tax_id>  (640) 
9606

>  <bao_label>  (640) 
assay format

>  <published_units>  (640) 
uM

>  <pchembl_value>  (640) 
5.07

>  <published_type>  (640) 
IC50

>  <activity_comment>  (640) 
Active

$$$$

     RDKit          

 34 38  0  0  0  0  0  0  0  0999 V2000
    0.0000    0.0000    0.0000 C   0  0  0  0  0  0  0  0  0  0  0  0
    0.0000    0.0000    0.0000 C   0  0  0  0  0  0  0  0  0  0  0  0
    0.0000    0.0000    0.0000 C   0  0  0  0  0  0  0  0  0  0  0  0
    0.0000    0.0000    0.0000 C   0  0  0  0  0  0  0  0  0  0  0  0
    0.0000    0.0000    0.0000 C   0  0  0  0  0  0  0  0  0  0  0  0
    0.0000    0.0000    0.0000 C   0  0  0  0  0  0  0  0  0  0  0  0
    0.0000    0.0000    0.0000 N   0  0  0  0  0  0  0  0  0  0  0  0
    0.0000    0.0000    0.0000 C   0  0  0  0  0  0  0  0  0  0  0  0
    0.0000    0.0000    0.0000 C   0  0  0  0  0  0  0  0  0  0  0  0
    0.0000    0.0000    0.0000 N   0  0  0  0  0  0  0  0  0  0  0  0
    0.0000    0.0000    0.0000 C   0  0  0  0  0  0  0  0  0  0  0  0
    0.0000    0.0000    0.0000 C   0  0  0  0  0  0  0  0  0  0  0  0
    0.0000    0.0000    0.0000 N   0  0  0  0  0  0  0  0  0  0  0  0
    0.0000    0.0000    0.0000 C   0  0  0  0  0  0  0  0  0  0  0  0
    0.0000    0.0000    0.0000 O   0  0  0  0  0  0  0  0  0  0  0  0
    0.0000    0.0000    0.0000 C   0  0  0  0  0  0  0  0  0  0  0  0
    0.0000    0.0000    0.0000 N   0  0  0  0  0  0  0  0  0  0  0  0
    0.0000    0.0000    0.0000 C   0  0  0  0  0  0  0  0  0  0  0  0
    0.0000    0.0000    0.0000 O   0  0  0  0  0  0  0  0  0  0  0  0
    0.0000    0.0000    0.0000 C   0  0  0  0  0  0  0  0  0  0  0  0
    0.0000    0.0000    0.0000 C   0  0  0  0  0  0  0  0  0  0  0  0
    0.0000    0.0000    0.0000 C   0  0  0  0  0  0  0  0  0  0  0  0
    0.0000    0.0000    0.0000 C   0  0  0  0  0  0  0  0  0  0  0  0
    0.0000    0.0000    0.0000 N   0  0  0  0  0  0  0  0  0  0  0  0
    0.0000    0.0000    0.0000 C   0  0  0  0  0  0  0  0  0  0  0  0
    0.0000    0.0000    0.0000 C   0  0  0  0  0  0  0  0  0  0  0  0
    0.0000    0.0000    0.0000 C   0  0  0  0  0  0  0  0  0  0  0  0
    0.0000    0.0000    0.0000 C   0  0  0  0  0  0  0  0  0  0  0  0
    0.0000    0.0000    0.0000 N   0  0  0  0  0  0  0  0  0  0  0  0
    0.0000    0.0000    0.0000 C   0  0  0  0  0  0  0  0  0  0  0  0
    0.0000    0.0000    0.0000 C   0  0  0  0  0  0  0  0  0  0  0  0
    0.0000    0.0000    0.0000 C   0  0  0  0  0  0  0  0  0  0  0  0
    0.0000    0.0000    0.0000 C   0  0  0  0  0  0  0  0  0  0  0  0
    0.0000    0.0000    0.0000 C   0  0  0  0  0  0  0  0  0  0  0  0
  1  2  1  0
  2  3  2  0
  3  4  1  0
  4  5  2  0
  5  6  1  0
  6  7  1  0
  7  8  1  0
  8  9  1  0
  9 10  1  0
 10 11  1  0
 11 12  1  0
 12 13  1  0
 13 14  1  0
 14 15  2  0
 14 16  1  0
 16 17  1  0
 17 18  1  0
 18 19  2  0
 18 20  1  0
 20 21  2  0
 21 22  1  0
 22 23  2  0
 23 24  1  0
 24 25  1  0
 25 26  2  0
 26 27  1  0
 27 28  2  0
 28 29  1  0
 29 30  2  0
 10 31  1  0
 31 32  1  0
  6 33  2  0
 33 34  1  0
 33  2  1  0
 32  7  1  0
 30 17  1  0
 24 20  1  0
 30 25  1  0
M  END
>  <pIC50>  (641) 
5.2

>  <ChEMBL_ID>  (641) 
CHEMBL1714715

>  <document_journal>  (641) 
None

>  <bao_endpoint>  (641) 
BAO_0000190

>  <potential_duplicate>  (641) 
False

>  <uo_units>  (641) 
UO_0000065

>  <canonical_smiles>  (641) 
Cc1cccc(N2CCN(CCNC(=O)CN3C(=O)c4cccn4c5cccnc35)CC2)c1C

>  <parent_molecule_chembl_id>  (641) 
CHEMBL1714715

>  <assay_type>  (641) 
F

>  <src_id>  (641) 
7

>  <ligand_efficiency>  (641) 
None

>  <standard_flag>  (641) 
True

>  <molecule_chembl_id>  (641) 
CHEMBL1714715

>  <target_organism>  (641) 
Homo sapiens

>  <standard_units>  (641) 
nM

>  <record_id>  (641) 
1386334

>  <document_chembl_id>  (641) 
CHEMBL1201862

>  <bao_format>  (641) 
BAO_0000019

>  <data_validity_description>  (641) 
None

>  <activity_id>  (641) 
5408073

>  <standard_type>  (641) 
IC50

>  <target_chembl_id>  (641) 
CHEMBL233

>  <data_validity_comment>  (641) 
None

>  <published_value>  (641) 
6.33

>  <document_year>  (641) 
None

>  <target_pref_name>  (641) 
Mu opioid receptor

>  <assay_chembl_id>  (641) 
CHEMBL1738030

>  <standard_relation>  (641) 
=

>  <assay_description>  (641) 
PUBCHEM_BIOASSAY: SAR Analysis of Antagonists of the MOR Receptor using an Image-Based Assay - Set 3. (Class of assay: confirmatory) [Related pubchem assays (depositor defined):AID1777, AID1785, AID1786, AID1966, AID2133, AID2136, AID2284, AID2285, AID2420]

>  <published_relation>  (641) 
=

>  <standard_value>  (641) 
6330

>  <qudt_units>  (641) 
http://www.openphacts.org/units/Nanomolar

>  <target_tax_id>  (641) 
9606

>  <bao_label>  (641) 
assay format

>  <published_units>  (641) 
uM

>  <pchembl_value>  (641) 
5.2

>  <published_type>  (641) 
IC50

>  <activity_comment>  (641) 
Active

$$$$

     RDKit          

 37 42  0  0  0  0  0  0  0  0999 V2000
    0.0000    0.0000    0.0000 C   0  0  0  0  0  0  0  0  0  0  0  0
    0.0000    0.0000    0.0000 C   0  0  0  0  0  0  0  0  0  0  0  0
    0.0000    0.0000    0.0000 C   0  0  0  0  0  0  0  0  0  0  0  0
    0.0000    0.0000    0.0000 C   0  0  0  0  0  0  0  0  0  0  0  0
    0.0000    0.0000    0.0000 N   0  0  0  0  0  0  0  0  0  0  0  0
    0.0000    0.0000    0.0000 C   0  0  0  0  0  0  0  0  0  0  0  0
    0.0000    0.0000    0.0000 N   0  0  0  0  0  0  0  0  0  0  0  0
    0.0000    0.0000    0.0000 C   0  0  0  0  0  0  0  0  0  0  0  0
    0.0000    0.0000    0.0000 C   0  0  0  0  0  0  0  0  0  0  0  0
    0.0000    0.0000    0.0000 O   0  0  0  0  0  0  0  0  0  0  0  0
    0.0000    0.0000    0.0000 N   0  0  0  0  0  0  0  0  0  0  0  0
    0.0000    0.0000    0.0000 C   0  0  0  0  0  0  0  0  0  0  0  0
    0.0000    0.0000    0.0000 C   0  0  0  0  0  0  0  0  0  0  0  0
    0.0000    0.0000    0.0000 C   0  0  0  0  0  0  0  0  0  0  0  0
    0.0000    0.0000    0.0000 N   0  0  0  0  0  0  0  0  0  0  0  0
    0.0000    0.0000    0.0000 C   0  0  0  0  0  0  0  0  0  0  0  0
    0.0000    0.0000    0.0000 C   0  0  0  0  0  0  0  0  0  0  0  0
    0.0000    0.0000    0.0000 N   0  0  0  0  0  0  0  0  0  0  0  0
    0.0000    0.0000    0.0000 C   0  0  0  0  0  0  0  0  0  0  0  0
    0.0000    0.0000    0.0000 C   0  0  0  0  0  0  0  0  0  0  0  0
    0.0000    0.0000    0.0000 C   0  0  0  0  0  0  0  0  0  0  0  0
    0.0000    0.0000    0.0000 C   0  0  0  0  0  0  0  0  0  0  0  0
    0.0000    0.0000    0.0000 C   0  0  0  0  0  0  0  0  0  0  0  0
    0.0000    0.0000    0.0000 C   0  0  0  0  0  0  0  0  0  0  0  0
    0.0000    0.0000    0.0000 O   0  0  0  0  0  0  0  0  0  0  0  0
    0.0000    0.0000    0.0000 C   0  0  0  0  0  0  0  0  0  0  0  0
    0.0000    0.0000    0.0000 O   0  0  0  0  0  0  0  0  0  0  0  0
    0.0000    0.0000    0.0000 C   0  0  0  0  0  0  0  0  0  0  0  0
    0.0000    0.0000    0.0000 C   0  0  0  0  0  0  0  0  0  0  0  0
    0.0000    0.0000    0.0000 C   0  0  0  0  0  0  0  0  0  0  0  0
    0.0000    0.0000    0.0000 O   0  0  0  0  0  0  0  0  0  0  0  0
    0.0000    0.0000    0.0000 C   0  0  0  0  0  0  0  0  0  0  0  0
    0.0000    0.0000    0.0000 C   0  0  0  0  0  0  0  0  0  0  0  0
    0.0000    0.0000    0.0000 C   0  0  0  0  0  0  0  0  0  0  0  0
    0.0000    0.0000    0.0000 C   0  0  0  0  0  0  0  0  0  0  0  0
    0.0000    0.0000    0.0000 N   0  0  0  0  0  0  0  0  0  0  0  0
    0.0000    0.0000    0.0000 C   0  0  0  0  0  0  0  0  0  0  0  0
  1  2  1  0
  2  3  2  0
  3  4  1  0
  4  5  2  0
  5  6  1  0
  6  7  1  0
  7  8  1  0
  8  9  1  0
  9 10  2  0
  9 11  1  0
 11 12  1  0
 12 13  1  0
 13 14  1  0
 14 15  1  0
 15 16  1  0
 16 17  1  0
 17 18  1  0
 18 19  1  0
 19 20  1  0
 18 21  1  0
 21 22  2  0
 22 23  1  0
 23 24  2  0
 24 25  1  0
 25 26  1  0
 26 27  1  0
 27 28  1  0
 28 29  2  0
  7 30  1  0
 30 31  2  0
 30 32  1  0
 32 33  2  0
 33 34  1  0
 34 35  2  0
 35 36  1  0
 36 37  1  0
 37  2  1  0
 37  6  2  0
 20 15  1  0
 29 21  1  0
 28 24  1  0
 36 32  1  0
M  END
>  <pIC50>  (642) 
4.76

>  <ChEMBL_ID>  (642) 
CHEMBL1704988

>  <document_journal>  (642) 
None

>  <bao_endpoint>  (642) 
BAO_0000190

>  <potential_duplicate>  (642) 
False

>  <uo_units>  (642) 
UO_0000065

>  <canonical_smiles>  (642) 
Cc1ccnc2N(CC(=O)NCCCN3CCN(CC3)c4ccc5OCOc5c4)C(=O)c6cccn6c12

>  <parent_molecule_chembl_id>  (642) 
CHEMBL1704988

>  <assay_type>  (642) 
F

>  <src_id>  (642) 
7

>  <ligand_efficiency>  (642) 
None

>  <standard_flag>  (642) 
True

>  <molecule_chembl_id>  (642) 
CHEMBL1704988

>  <target_organism>  (642) 
Homo sapiens

>  <standard_units>  (642) 
nM

>  <record_id>  (642) 
1386723

>  <document_chembl_id>  (642) 
CHEMBL1201862

>  <bao_format>  (642) 
BAO_0000019

>  <data_validity_description>  (642) 
None

>  <activity_id>  (642) 
5408077

>  <standard_type>  (642) 
IC50

>  <target_chembl_id>  (642) 
CHEMBL233

>  <data_validity_comment>  (642) 
None

>  <published_value>  (642) 
17.2

>  <document_year>  (642) 
None

>  <target_pref_name>  (642) 
Mu opioid receptor

>  <assay_chembl_id>  (642) 
CHEMBL1738030

>  <standard_relation>  (642) 
=

>  <assay_description>  (642) 
PUBCHEM_BIOASSAY: SAR Analysis of Antagonists of the MOR Receptor using an Image-Based Assay - Set 3. (Class of assay: confirmatory) [Related pubchem assays (depositor defined):AID1777, AID1785, AID1786, AID1966, AID2133, AID2136, AID2284, AID2285, AID2420]

>  <published_relation>  (642) 
=

>  <standard_value>  (642) 
17200

>  <qudt_units>  (642) 
http://www.openphacts.org/units/Nanomolar

>  <target_tax_id>  (642) 
9606

>  <bao_label>  (642) 
assay format

>  <published_units>  (642) 
uM

>  <pchembl_value>  (642) 
4.76

>  <published_type>  (642) 
IC50

>  <activity_comment>  (642) 
inactive

$$$$

     RDKit          

 36 39  0  0  0  0  0  0  0  0999 V2000
    0.0000    0.0000    0.0000 C   0  0  0  0  0  0  0  0  0  0  0  0
    0.0000    0.0000    0.0000 C   0  0  0  0  0  0  0  0  0  0  0  0
    0.0000    0.0000    0.0000 C   0  0  0  0  0  0  0  0  0  0  0  0
    0.0000    0.0000    0.0000 N   0  0  0  0  0  0  0  0  0  0  0  0
    0.0000    0.0000    0.0000 C   0  0  0  0  0  0  0  0  0  0  0  0
    0.0000    0.0000    0.0000 C   0  0  0  0  0  0  0  0  0  0  0  0
    0.0000    0.0000    0.0000 N   0  0  0  0  0  0  0  0  0  0  0  0
    0.0000    0.0000    0.0000 C   0  0  0  0  0  0  0  0  0  0  0  0
    0.0000    0.0000    0.0000 O   0  0  0  0  0  0  0  0  0  0  0  0
    0.0000    0.0000    0.0000 C   0  0  0  0  0  0  0  0  0  0  0  0
    0.0000    0.0000    0.0000 C   0  0  0  0  0  0  0  0  0  0  0  0
    0.0000    0.0000    0.0000 C   0  0  0  0  0  0  0  0  0  0  0  0
    0.0000    0.0000    0.0000 C   0  0  0  0  0  0  0  0  0  0  0  0
    0.0000    0.0000    0.0000 C   0  0  0  0  0  0  0  0  0  0  0  0
    0.0000    0.0000    0.0000 N   0  0  0  0  0  0  0  0  0  0  0  0
    0.0000    0.0000    0.0000 C   0  0  0  0  0  0  0  0  0  0  0  0
    0.0000    0.0000    0.0000 C   0  0  0  0  0  0  0  0  0  0  0  0
    0.0000    0.0000    0.0000 C   0  0  0  0  0  0  0  0  0  0  0  0
    0.0000    0.0000    0.0000 C   0  0  0  0  0  0  0  0  0  0  0  0
    0.0000    0.0000    0.0000 S   0  0  0  0  0  0  0  0  0  0  0  0
    0.0000    0.0000    0.0000 O   0  0  0  0  0  0  0  0  0  0  0  0
    0.0000    0.0000    0.0000 O   0  0  0  0  0  0  0  0  0  0  0  0
    0.0000    0.0000    0.0000 C   0  0  0  0  0  0  0  0  0  0  0  0
    0.0000    0.0000    0.0000 C   0  0  0  0  0  0  0  0  0  0  0  0
    0.0000    0.0000    0.0000 C   0  0  0  0  0  0  0  0  0  0  0  0
    0.0000    0.0000    0.0000 C   0  0  0  0  0  0  0  0  0  0  0  0
    0.0000    0.0000    0.0000 C   0  0  0  0  0  0  0  0  0  0  0  0
    0.0000    0.0000    0.0000 C   0  0  0  0  0  0  0  0  0  0  0  0
    0.0000    0.0000    0.0000 C   0  0  0  0  0  0  0  0  0  0  0  0
    0.0000    0.0000    0.0000 C   0  0  0  0  0  0  0  0  0  0  0  0
    0.0000    0.0000    0.0000 C   0  0  0  0  0  0  0  0  0  0  0  0
    0.0000    0.0000    0.0000 C   0  0  0  0  0  0  0  0  0  0  0  0
    0.0000    0.0000    0.0000 C   0  0  0  0  0  0  0  0  0  0  0  0
    0.0000    0.0000    0.0000 C   0  0  0  0  0  0  0  0  0  0  0  0
    0.0000    0.0000    0.0000 C   0  0  0  0  0  0  0  0  0  0  0  0
    0.0000    0.0000    0.0000 C   0  0  0  0  0  0  0  0  0  0  0  0
  1  2  1  0
  2  3  1  0
  2  4  1  0
  4  5  1  0
  5  6  1  0
  6  7  1  0
  7  8  1  0
  8  9  2  0
  8 10  1  0
 10 11  2  0
 11 12  1  0
 12 13  2  0
 13 14  1  0
 14 15  1  0
 15 16  1  0
 16 17  1  0
 17 18  1  0
 18 19  2  0
 15 20  1  0
 20 21  2  0
 20 22  2  0
 20 23  1  0
 23 24  2  0
 24 25  1  0
 25 26  2  0
 26 27  1  0
 26 28  1  0
 28 29  2  0
  4 30  1  0
 30 31  1  0
 31 32  2  0
 32 33  1  0
 33 34  2  0
 34 35  1  0
 35 36  2  0
 19 10  1  0
 18 13  1  0
 29 23  1  0
 36 31  1  0
M  END
>  <pIC50>  (643) 
4.82

>  <ChEMBL_ID>  (643) 
CHEMBL1729698

>  <document_journal>  (643) 
None

>  <bao_endpoint>  (643) 
BAO_0000190

>  <potential_duplicate>  (643) 
False

>  <uo_units>  (643) 
UO_0000065

>  <canonical_smiles>  (643) 
CC(C)N(CCNC(=O)c1ccc2CN(CCc2c1)S(=O)(=O)c3ccc(C)cc3)Cc4ccccc4

>  <parent_molecule_chembl_id>  (643) 
CHEMBL1729698

>  <assay_type>  (643) 
F

>  <src_id>  (643) 
7

>  <ligand_efficiency>  (643) 
None

>  <standard_flag>  (643) 
True

>  <molecule_chembl_id>  (643) 
CHEMBL1729698

>  <target_organism>  (643) 
Homo sapiens

>  <standard_units>  (643) 
nM

>  <record_id>  (643) 
1389289

>  <document_chembl_id>  (643) 
CHEMBL1201862

>  <bao_format>  (643) 
BAO_0000019

>  <data_validity_description>  (643) 
None

>  <activity_id>  (643) 
5408087

>  <standard_type>  (643) 
IC50

>  <target_chembl_id>  (643) 
CHEMBL233

>  <data_validity_comment>  (643) 
None

>  <published_value>  (643) 
15.1

>  <document_year>  (643) 
None

>  <target_pref_name>  (643) 
Mu opioid receptor

>  <assay_chembl_id>  (643) 
CHEMBL1738030

>  <standard_relation>  (643) 
=

>  <assay_description>  (643) 
PUBCHEM_BIOASSAY: SAR Analysis of Antagonists of the MOR Receptor using an Image-Based Assay - Set 3. (Class of assay: confirmatory) [Related pubchem assays (depositor defined):AID1777, AID1785, AID1786, AID1966, AID2133, AID2136, AID2284, AID2285, AID2420]

>  <published_relation>  (643) 
=

>  <standard_value>  (643) 
15100

>  <qudt_units>  (643) 
http://www.openphacts.org/units/Nanomolar

>  <target_tax_id>  (643) 
9606

>  <bao_label>  (643) 
assay format

>  <published_units>  (643) 
uM

>  <pchembl_value>  (643) 
4.82

>  <published_type>  (643) 
IC50

>  <activity_comment>  (643) 
inactive

$$$$

     RDKit          

 36 38  0  0  0  0  0  0  0  0999 V2000
    0.0000    0.0000    0.0000 C   0  0  0  0  0  0  0  0  0  0  0  0
    0.0000    0.0000    0.0000 C   0  0  0  0  0  0  0  0  0  0  0  0
    0.0000    0.0000    0.0000 C   0  0  0  0  0  0  0  0  0  0  0  0
    0.0000    0.0000    0.0000 N   0  0  0  0  0  0  0  0  0  0  0  0
    0.0000    0.0000    0.0000 C   0  0  0  0  0  0  0  0  0  0  0  0
    0.0000    0.0000    0.0000 C   0  0  0  0  0  0  0  0  0  0  0  0
    0.0000    0.0000    0.0000 N   0  0  0  0  0  0  0  0  0  0  0  0
    0.0000    0.0000    0.0000 C   0  0  0  0  0  0  0  0  0  0  0  0
    0.0000    0.0000    0.0000 O   0  0  0  0  0  0  0  0  0  0  0  0
    0.0000    0.0000    0.0000 C   0  0  0  0  0  0  0  0  0  0  0  0
    0.0000    0.0000    0.0000 C   0  0  0  0  0  0  0  0  0  0  0  0
    0.0000    0.0000    0.0000 C   0  0  0  0  0  0  0  0  0  0  0  0
    0.0000    0.0000    0.0000 C   0  0  0  0  0  0  0  0  0  0  0  0
    0.0000    0.0000    0.0000 C   0  0  0  0  0  0  0  0  0  0  0  0
    0.0000    0.0000    0.0000 N   0  0  0  0  0  0  0  0  0  0  0  0
    0.0000    0.0000    0.0000 S   0  0  0  0  0  0  0  0  0  0  0  0
    0.0000    0.0000    0.0000 O   0  0  0  0  0  0  0  0  0  0  0  0
    0.0000    0.0000    0.0000 O   0  0  0  0  0  0  0  0  0  0  0  0
    0.0000    0.0000    0.0000 C   0  0  0  0  0  0  0  0  0  0  0  0
    0.0000    0.0000    0.0000 C   0  0  0  0  0  0  0  0  0  0  0  0
    0.0000    0.0000    0.0000 C   0  0  0  0  0  0  0  0  0  0  0  0
    0.0000    0.0000    0.0000 C   0  0  0  0  0  0  0  0  0  0  0  0
    0.0000    0.0000    0.0000 C   0  0  0  0  0  0  0  0  0  0  0  0
    0.0000    0.0000    0.0000 C   0  0  0  0  0  0  0  0  0  0  0  0
    0.0000    0.0000    0.0000 C   0  0  0  0  0  0  0  0  0  0  0  0
    0.0000    0.0000    0.0000 C   0  0  0  0  0  0  0  0  0  0  0  0
    0.0000    0.0000    0.0000 C   0  0  0  0  0  0  0  0  0  0  0  0
    0.0000    0.0000    0.0000 C   0  0  0  0  0  0  0  0  0  0  0  0
    0.0000    0.0000    0.0000 C   0  0  0  0  0  0  0  0  0  0  0  0
    0.0000    0.0000    0.0000 C   0  0  0  0  0  0  0  0  0  0  0  0
    0.0000    0.0000    0.0000 C   0  0  0  0  0  0  0  0  0  0  0  0
    0.0000    0.0000    0.0000 C   0  0  0  0  0  0  0  0  0  0  0  0
    0.0000    0.0000    0.0000 C   0  0  0  0  0  0  0  0  0  0  0  0
    0.0000    0.0000    0.0000 C   0  0  0  0  0  0  0  0  0  0  0  0
    0.0000    0.0000    0.0000 C   0  0  0  0  0  0  0  0  0  0  0  0
    0.0000    0.0000    0.0000 C   0  0  0  0  0  0  0  0  0  0  0  0
  1  2  1  0
  2  3  1  0
  2  4  1  0
  4  5  1  0
  5  6  1  0
  6  7  1  0
  7  8  1  0
  8  9  2  0
  8 10  1  0
 10 11  2  0
 11 12  1  0
 12 13  2  0
 13 14  1  0
 14 15  1  0
 15 16  1  0
 16 17  2  0
 16 18  2  0
 16 19  1  0
 19 20  2  0
 20 21  1  0
 21 22  2  0
 22 23  1  0
 23 24  2  0
 22 25  1  0
 25 26  1  0
 25 27  1  0
 13 28  1  0
 28 29  2  0
  4 30  1  0
 30 31  1  0
 31 32  2  0
 32 33  1  0
 33 34  2  0
 34 35  1  0
 35 36  2  0
 29 10  1  0
 24 19  1  0
 36 31  1  0
M  END
>  <pIC50>  (644) 
6.18

>  <ChEMBL_ID>  (644) 
CHEMBL1700772

>  <document_journal>  (644) 
None

>  <bao_endpoint>  (644) 
BAO_0000190

>  <potential_duplicate>  (644) 
False

>  <uo_units>  (644) 
UO_0000065

>  <canonical_smiles>  (644) 
CC(C)N(CCNC(=O)c1ccc(CNS(=O)(=O)c2ccc(cc2)C(C)C)cc1)Cc3ccccc3

>  <parent_molecule_chembl_id>  (644) 
CHEMBL1700772

>  <assay_type>  (644) 
F

>  <src_id>  (644) 
7

>  <ligand_efficiency>  (644) 
None

>  <standard_flag>  (644) 
True

>  <molecule_chembl_id>  (644) 
CHEMBL1700772

>  <target_organism>  (644) 
Homo sapiens

>  <standard_units>  (644) 
nM

>  <record_id>  (644) 
1389288

>  <document_chembl_id>  (644) 
CHEMBL1201862

>  <bao_format>  (644) 
BAO_0000019

>  <data_validity_description>  (644) 
None

>  <activity_id>  (644) 
5408088

>  <standard_type>  (644) 
IC50

>  <target_chembl_id>  (644) 
CHEMBL233

>  <data_validity_comment>  (644) 
None

>  <published_value>  (644) 
0.66

>  <document_year>  (644) 
None

>  <target_pref_name>  (644) 
Mu opioid receptor

>  <assay_chembl_id>  (644) 
CHEMBL1738030

>  <standard_relation>  (644) 
=

>  <assay_description>  (644) 
PUBCHEM_BIOASSAY: SAR Analysis of Antagonists of the MOR Receptor using an Image-Based Assay - Set 3. (Class of assay: confirmatory) [Related pubchem assays (depositor defined):AID1777, AID1785, AID1786, AID1966, AID2133, AID2136, AID2284, AID2285, AID2420]

>  <published_relation>  (644) 
=

>  <standard_value>  (644) 
660

>  <qudt_units>  (644) 
http://www.openphacts.org/units/Nanomolar

>  <target_tax_id>  (644) 
9606

>  <bao_label>  (644) 
assay format

>  <published_units>  (644) 
uM

>  <pchembl_value>  (644) 
6.18

>  <published_type>  (644) 
IC50

>  <activity_comment>  (644) 
Active

$$$$

     RDKit          

 34 37  0  0  0  0  0  0  0  0999 V2000
    0.0000    0.0000    0.0000 C   0  0  0  0  0  0  0  0  0  0  0  0
    0.0000    0.0000    0.0000 C   0  0  0  0  0  0  0  0  0  0  0  0
    0.0000    0.0000    0.0000 C   0  0  0  0  0  0  0  0  0  0  0  0
    0.0000    0.0000    0.0000 C   0  0  0  0  0  0  0  0  0  0  0  0
    0.0000    0.0000    0.0000 C   0  0  0  0  0  0  0  0  0  0  0  0
    0.0000    0.0000    0.0000 C   0  0  0  0  0  0  0  0  0  0  0  0
    0.0000    0.0000    0.0000 C   0  0  0  0  0  0  0  0  0  0  0  0
    0.0000    0.0000    0.0000 S   0  0  0  0  0  0  0  0  0  0  0  0
    0.0000    0.0000    0.0000 O   0  0  0  0  0  0  0  0  0  0  0  0
    0.0000    0.0000    0.0000 O   0  0  0  0  0  0  0  0  0  0  0  0
    0.0000    0.0000    0.0000 N   0  0  0  0  0  0  0  0  0  0  0  0
    0.0000    0.0000    0.0000 C   0  0  0  0  0  0  0  0  0  0  0  0
    0.0000    0.0000    0.0000 C   0  0  0  0  0  0  0  0  0  0  0  0
    0.0000    0.0000    0.0000 C   0  0  0  0  0  0  0  0  0  0  0  0
    0.0000    0.0000    0.0000 C   0  0  0  0  0  0  0  0  0  0  0  0
    0.0000    0.0000    0.0000 C   0  0  0  0  0  0  0  0  0  0  0  0
    0.0000    0.0000    0.0000 C   0  0  0  0  0  0  0  0  0  0  0  0
    0.0000    0.0000    0.0000 C   0  0  0  0  0  0  0  0  0  0  0  0
    0.0000    0.0000    0.0000 C   0  0  0  0  0  0  0  0  0  0  0  0
    0.0000    0.0000    0.0000 O   0  0  0  0  0  0  0  0  0  0  0  0
    0.0000    0.0000    0.0000 N   0  0  0  0  0  0  0  0  0  0  0  0
    0.0000    0.0000    0.0000 C   0  0  0  0  0  0  0  0  0  0  0  0
    0.0000    0.0000    0.0000 C   0  0  0  0  0  0  0  0  0  0  0  0
    0.0000    0.0000    0.0000 C   0  0  0  0  0  0  0  0  0  0  0  0
    0.0000    0.0000    0.0000 C   0  0  0  0  0  0  0  0  0  0  0  0
    0.0000    0.0000    0.0000 N   0  0  0  0  0  0  0  0  0  0  0  0
    0.0000    0.0000    0.0000 C   0  0  0  0  0  0  0  0  0  0  0  0
    0.0000    0.0000    0.0000 C   0  0  0  0  0  0  0  0  0  0  0  0
    0.0000    0.0000    0.0000 C   0  0  0  0  0  0  0  0  0  0  0  0
    0.0000    0.0000    0.0000 C   0  0  0  0  0  0  0  0  0  0  0  0
    0.0000    0.0000    0.0000 C   0  0  0  0  0  0  0  0  0  0  0  0
    0.0000    0.0000    0.0000 C   0  0  0  0  0  0  0  0  0  0  0  0
    0.0000    0.0000    0.0000 C   0  0  0  0  0  0  0  0  0  0  0  0
    0.0000    0.0000    0.0000 C   0  0  0  0  0  0  0  0  0  0  0  0
  1  2  1  0
  2  3  2  0
  3  4  1  0
  4  5  2  0
  5  6  1  0
  6  7  2  0
  5  8  1  0
  8  9  2  0
  8 10  2  0
  8 11  1  0
 11 12  1  0
 12 13  1  0
 13 14  2  0
 14 15  1  0
 15 16  2  0
 16 17  1  0
 17 18  2  0
 16 19  1  0
 19 20  2  0
 19 21  1  0
 21 22  1  0
 22 23  1  0
 23 24  1  0
 24 25  1  0
 25 26  1  0
 26 27  1  0
 27 28  1  0
 28 29  2  0
 29 30  1  0
 30 31  2  0
 31 32  1  0
 32 33  2  0
 26 34  1  0
  7  2  1  0
 18 13  1  0
 34 22  1  0
 33 28  1  0
M  END
>  <pIC50>  (645) 
5.17

>  <ChEMBL_ID>  (645) 
CHEMBL1720462

>  <document_journal>  (645) 
None

>  <bao_endpoint>  (645) 
BAO_0000190

>  <potential_duplicate>  (645) 
False

>  <uo_units>  (645) 
UO_0000065

>  <canonical_smiles>  (645) 
Cc1ccc(cc1)S(=O)(=O)NCc2ccc(cc2)C(=O)NC3CCCN(Cc4ccccc4)C3

>  <parent_molecule_chembl_id>  (645) 
CHEMBL1720462

>  <assay_type>  (645) 
F

>  <src_id>  (645) 
7

>  <ligand_efficiency>  (645) 
None

>  <standard_flag>  (645) 
True

>  <molecule_chembl_id>  (645) 
CHEMBL1720462

>  <target_organism>  (645) 
Homo sapiens

>  <standard_units>  (645) 
nM

>  <record_id>  (645) 
1389285

>  <document_chembl_id>  (645) 
CHEMBL1201862

>  <bao_format>  (645) 
BAO_0000019

>  <data_validity_description>  (645) 
None

>  <activity_id>  (645) 
5408092

>  <standard_type>  (645) 
IC50

>  <target_chembl_id>  (645) 
CHEMBL233

>  <data_validity_comment>  (645) 
None

>  <published_value>  (645) 
6.75

>  <document_year>  (645) 
None

>  <target_pref_name>  (645) 
Mu opioid receptor

>  <assay_chembl_id>  (645) 
CHEMBL1738030

>  <standard_relation>  (645) 
=

>  <assay_description>  (645) 
PUBCHEM_BIOASSAY: SAR Analysis of Antagonists of the MOR Receptor using an Image-Based Assay - Set 3. (Class of assay: confirmatory) [Related pubchem assays (depositor defined):AID1777, AID1785, AID1786, AID1966, AID2133, AID2136, AID2284, AID2285, AID2420]

>  <published_relation>  (645) 
=

>  <standard_value>  (645) 
6750

>  <qudt_units>  (645) 
http://www.openphacts.org/units/Nanomolar

>  <target_tax_id>  (645) 
9606

>  <bao_label>  (645) 
assay format

>  <published_units>  (645) 
uM

>  <pchembl_value>  (645) 
5.17

>  <published_type>  (645) 
IC50

>  <activity_comment>  (645) 
Active

$$$$

     RDKit          

 36 39  0  0  0  0  0  0  0  0999 V2000
    0.0000    0.0000    0.0000 C   0  0  0  0  0  0  0  0  0  0  0  0
    0.0000    0.0000    0.0000 C   0  0  0  0  0  0  0  0  0  0  0  0
    0.0000    0.0000    0.0000 C   0  0  0  0  0  0  0  0  0  0  0  0
    0.0000    0.0000    0.0000 C   0  0  0  0  0  0  0  0  0  0  0  0
    0.0000    0.0000    0.0000 C   0  0  0  0  0  0  0  0  0  0  0  0
    0.0000    0.0000    0.0000 C   0  0  0  0  0  0  0  0  0  0  0  0
    0.0000    0.0000    0.0000 C   0  0  0  0  0  0  0  0  0  0  0  0
    0.0000    0.0000    0.0000 S   0  0  0  0  0  0  0  0  0  0  0  0
    0.0000    0.0000    0.0000 O   0  0  0  0  0  0  0  0  0  0  0  0
    0.0000    0.0000    0.0000 O   0  0  0  0  0  0  0  0  0  0  0  0
    0.0000    0.0000    0.0000 N   0  0  0  0  0  0  0  0  0  0  0  0
    0.0000    0.0000    0.0000 C   0  0  0  0  0  0  0  0  0  0  0  0
    0.0000    0.0000    0.0000 C   0  0  0  0  0  0  0  0  0  0  0  0
    0.0000    0.0000    0.0000 C   0  0  0  0  0  0  0  0  0  0  0  0
    0.0000    0.0000    0.0000 C   0  0  0  0  0  0  0  0  0  0  0  0
    0.0000    0.0000    0.0000 C   0  0  0  0  0  0  0  0  0  0  0  0
    0.0000    0.0000    0.0000 C   0  0  0  0  0  0  0  0  0  0  0  0
    0.0000    0.0000    0.0000 C   0  0  0  0  0  0  0  0  0  0  0  0
    0.0000    0.0000    0.0000 C   0  0  0  0  0  0  0  0  0  0  0  0
    0.0000    0.0000    0.0000 O   0  0  0  0  0  0  0  0  0  0  0  0
    0.0000    0.0000    0.0000 N   0  0  0  0  0  0  0  0  0  0  0  0
    0.0000    0.0000    0.0000 C   0  0  0  0  0  0  0  0  0  0  0  0
    0.0000    0.0000    0.0000 C   0  0  0  0  0  0  0  0  0  0  0  0
    0.0000    0.0000    0.0000 N   0  0  0  0  0  0  0  0  0  0  0  0
    0.0000    0.0000    0.0000 C   0  0  0  0  0  0  0  0  0  0  0  0
    0.0000    0.0000    0.0000 C   0  0  0  0  0  0  0  0  0  0  0  0
    0.0000    0.0000    0.0000 C   0  0  0  0  0  0  0  0  0  0  0  0
    0.0000    0.0000    0.0000 C   0  0  0  0  0  0  0  0  0  0  0  0
    0.0000    0.0000    0.0000 C   0  0  0  0  0  0  0  0  0  0  0  0
    0.0000    0.0000    0.0000 C   0  0  0  0  0  0  0  0  0  0  0  0
    0.0000    0.0000    0.0000 C   0  0  0  0  0  0  0  0  0  0  0  0
    0.0000    0.0000    0.0000 C   0  0  0  0  0  0  0  0  0  0  0  0
    0.0000    0.0000    0.0000 C   0  0  0  0  0  0  0  0  0  0  0  0
    0.0000    0.0000    0.0000 C   0  0  0  0  0  0  0  0  0  0  0  0
    0.0000    0.0000    0.0000 C   0  0  0  0  0  0  0  0  0  0  0  0
    0.0000    0.0000    0.0000 C   0  0  0  0  0  0  0  0  0  0  0  0
  1  2  1  0
  2  3  2  0
  3  4  1  0
  4  5  2  0
  5  6  1  0
  6  7  2  0
  5  8  1  0
  8  9  2  0
  8 10  2  0
  8 11  1  0
 11 12  1  0
 12 13  1  0
 13 14  2  0
 14 15  1  0
 15 16  2  0
 16 17  1  0
 17 18  2  0
 16 19  1  0
 19 20  2  0
 19 21  1  0
 21 22  1  0
 22 23  1  0
 23 24  1  0
 24 25  1  0
 25 26  1  0
 26 27  2  0
 27 28  1  0
 28 29  2  0
 29 30  1  0
 30 31  2  0
 24 32  1  0
 32 33  1  0
 33 34  1  0
 34 35  1  0
 35 36  1  0
  7  2  1  0
 18 13  1  0
 31 26  1  0
 36 32  1  0
M  END
>  <pIC50>  (646) 
5.48

>  <ChEMBL_ID>  (646) 
CHEMBL1725537

>  <document_journal>  (646) 
None

>  <bao_endpoint>  (646) 
BAO_0000190

>  <potential_duplicate>  (646) 
False

>  <uo_units>  (646) 
UO_0000065

>  <canonical_smiles>  (646) 
Cc1ccc(cc1)S(=O)(=O)NCc2ccc(cc2)C(=O)NCCN(Cc3ccccc3)C4CCCC4

>  <parent_molecule_chembl_id>  (646) 
CHEMBL1725537

>  <assay_type>  (646) 
F

>  <src_id>  (646) 
7

>  <ligand_efficiency>  (646) 
None

>  <standard_flag>  (646) 
True

>  <molecule_chembl_id>  (646) 
CHEMBL1725537

>  <target_organism>  (646) 
Homo sapiens

>  <standard_units>  (646) 
nM

>  <record_id>  (646) 
1389294

>  <document_chembl_id>  (646) 
CHEMBL1201862

>  <bao_format>  (646) 
BAO_0000019

>  <data_validity_description>  (646) 
None

>  <activity_id>  (646) 
5408096

>  <standard_type>  (646) 
IC50

>  <target_chembl_id>  (646) 
CHEMBL233

>  <data_validity_comment>  (646) 
None

>  <published_value>  (646) 
3.31

>  <document_year>  (646) 
None

>  <target_pref_name>  (646) 
Mu opioid receptor

>  <assay_chembl_id>  (646) 
CHEMBL1738030

>  <standard_relation>  (646) 
=

>  <assay_description>  (646) 
PUBCHEM_BIOASSAY: SAR Analysis of Antagonists of the MOR Receptor using an Image-Based Assay - Set 3. (Class of assay: confirmatory) [Related pubchem assays (depositor defined):AID1777, AID1785, AID1786, AID1966, AID2133, AID2136, AID2284, AID2285, AID2420]

>  <published_relation>  (646) 
=

>  <standard_value>  (646) 
3310

>  <qudt_units>  (646) 
http://www.openphacts.org/units/Nanomolar

>  <target_tax_id>  (646) 
9606

>  <bao_label>  (646) 
assay format

>  <published_units>  (646) 
uM

>  <pchembl_value>  (646) 
5.48

>  <published_type>  (646) 
IC50

>  <activity_comment>  (646) 
Active

$$$$

     RDKit          

 37 41  0  0  0  0  0  0  0  0999 V2000
    0.0000    0.0000    0.0000 C   0  0  0  0  0  0  0  0  0  0  0  0
    0.0000    0.0000    0.0000 O   0  0  0  0  0  0  0  0  0  0  0  0
    0.0000    0.0000    0.0000 C   0  0  0  0  0  0  0  0  0  0  0  0
    0.0000    0.0000    0.0000 C   0  0  0  0  0  0  0  0  0  0  0  0
    0.0000    0.0000    0.0000 C   0  0  0  0  0  0  0  0  0  0  0  0
    0.0000    0.0000    0.0000 C   0  0  0  0  0  0  0  0  0  0  0  0
    0.0000    0.0000    0.0000 N   0  0  0  0  0  0  0  0  0  0  0  0
    0.0000    0.0000    0.0000 C   0  0  0  0  0  0  0  0  0  0  0  0
    0.0000    0.0000    0.0000 C   0  0  0  0  0  0  0  0  0  0  0  0
    0.0000    0.0000    0.0000 N   0  0  0  0  0  0  0  0  0  0  0  0
    0.0000    0.0000    0.0000 C   0  0  0  0  0  0  0  0  0  0  0  0
    0.0000    0.0000    0.0000 C   0  0  0  0  0  0  0  0  0  0  0  0
    0.0000    0.0000    0.0000 C   0  0  0  0  0  0  0  0  0  0  0  0
    0.0000    0.0000    0.0000 N   0  0  0  0  0  0  0  0  0  0  0  0
    0.0000    0.0000    0.0000 C   0  0  0  0  0  0  0  0  0  0  0  0
    0.0000    0.0000    0.0000 O   0  0  0  0  0  0  0  0  0  0  0  0
    0.0000    0.0000    0.0000 C   0  0  0  0  0  0  0  0  0  0  0  0
    0.0000    0.0000    0.0000 N   0  0  0  0  0  0  0  0  0  0  0  0
    0.0000    0.0000    0.0000 C   0  0  0  0  0  0  0  0  0  0  0  0
    0.0000    0.0000    0.0000 O   0  0  0  0  0  0  0  0  0  0  0  0
    0.0000    0.0000    0.0000 C   0  0  0  0  0  0  0  0  0  0  0  0
    0.0000    0.0000    0.0000 C   0  0  0  0  0  0  0  0  0  0  0  0
    0.0000    0.0000    0.0000 C   0  0  0  0  0  0  0  0  0  0  0  0
    0.0000    0.0000    0.0000 C   0  0  0  0  0  0  0  0  0  0  0  0
    0.0000    0.0000    0.0000 N   0  0  0  0  0  0  0  0  0  0  0  0
    0.0000    0.0000    0.0000 C   0  0  0  0  0  0  0  0  0  0  0  0
    0.0000    0.0000    0.0000 C   0  0  0  0  0  0  0  0  0  0  0  0
    0.0000    0.0000    0.0000 C   0  0  0  0  0  0  0  0  0  0  0  0
    0.0000    0.0000    0.0000 C   0  0  0  0  0  0  0  0  0  0  0  0
    0.0000    0.0000    0.0000 N   0  0  0  0  0  0  0  0  0  0  0  0
    0.0000    0.0000    0.0000 C   0  0  0  0  0  0  0  0  0  0  0  0
    0.0000    0.0000    0.0000 C   0  0  0  0  0  0  0  0  0  0  0  0
    0.0000    0.0000    0.0000 C   0  0  0  0  0  0  0  0  0  0  0  0
    0.0000    0.0000    0.0000 C   0  0  0  0  0  0  0  0  0  0  0  0
    0.0000    0.0000    0.0000 O   0  0  0  0  0  0  0  0  0  0  0  0
    0.0000    0.0000    0.0000 C   0  0  0  0  0  0  0  0  0  0  0  0
    0.0000    0.0000    0.0000 C   0  0  0  0  0  0  0  0  0  0  0  0
  1  2  1  0
  2  3  1  0
  3  4  2  0
  4  5  1  0
  5  6  2  0
  6  7  1  0
  7  8  1  0
  8  9  1  0
  9 10  1  0
 10 11  1  0
 11 12  1  0
 12 13  1  0
 13 14  1  0
 14 15  1  0
 15 16  2  0
 15 17  1  0
 17 18  1  0
 18 19  1  0
 19 20  2  0
 19 21  1  0
 21 22  2  0
 22 23  1  0
 23 24  2  0
 24 25  1  0
 25 26  1  0
 26 27  2  0
 27 28  1  0
 28 29  2  0
 29 30  1  0
 30 31  2  0
 10 32  1  0
 32 33  1  0
  6 34  1  0
 34 35  1  0
 35 36  1  0
 34 37  2  0
 37  3  1  0
 33  7  1  0
 31 18  1  0
 25 21  1  0
 31 26  1  0
M  END
>  <pIC50>  (647) 
4.97

>  <ChEMBL_ID>  (647) 
CHEMBL1725847

>  <document_journal>  (647) 
None

>  <bao_endpoint>  (647) 
BAO_0000190

>  <potential_duplicate>  (647) 
False

>  <uo_units>  (647) 
UO_0000065

>  <canonical_smiles>  (647) 
COc1ccc(N2CCN(CCCNC(=O)CN3C(=O)c4cccn4c5cccnc35)CC2)c(OC)c1

>  <parent_molecule_chembl_id>  (647) 
CHEMBL1725847

>  <assay_type>  (647) 
F

>  <src_id>  (647) 
7

>  <ligand_efficiency>  (647) 
None

>  <standard_flag>  (647) 
True

>  <molecule_chembl_id>  (647) 
CHEMBL1725847

>  <target_organism>  (647) 
Homo sapiens

>  <standard_units>  (647) 
nM

>  <record_id>  (647) 
1388045

>  <document_chembl_id>  (647) 
CHEMBL1201862

>  <bao_format>  (647) 
BAO_0000019

>  <data_validity_description>  (647) 
None

>  <activity_id>  (647) 
5408105

>  <standard_type>  (647) 
IC50

>  <target_chembl_id>  (647) 
CHEMBL233

>  <data_validity_comment>  (647) 
None

>  <published_value>  (647) 
10.8

>  <document_year>  (647) 
None

>  <target_pref_name>  (647) 
Mu opioid receptor

>  <assay_chembl_id>  (647) 
CHEMBL1738030

>  <standard_relation>  (647) 
=

>  <assay_description>  (647) 
PUBCHEM_BIOASSAY: SAR Analysis of Antagonists of the MOR Receptor using an Image-Based Assay - Set 3. (Class of assay: confirmatory) [Related pubchem assays (depositor defined):AID1777, AID1785, AID1786, AID1966, AID2133, AID2136, AID2284, AID2285, AID2420]

>  <published_relation>  (647) 
=

>  <standard_value>  (647) 
10800

>  <qudt_units>  (647) 
http://www.openphacts.org/units/Nanomolar

>  <target_tax_id>  (647) 
9606

>  <bao_label>  (647) 
assay format

>  <published_units>  (647) 
uM

>  <pchembl_value>  (647) 
4.97

>  <published_type>  (647) 
IC50

>  <activity_comment>  (647) 
inactive

$$$$

     RDKit          

 33 35  0  0  0  0  0  0  0  0999 V2000
    0.0000    0.0000    0.0000 C   0  0  0  0  0  0  0  0  0  0  0  0
    0.0000    0.0000    0.0000 C   0  0  0  0  0  0  0  0  0  0  0  0
    0.0000    0.0000    0.0000 N   0  0  0  0  0  0  0  0  0  0  0  0
    0.0000    0.0000    0.0000 C   0  0  0  0  0  0  0  0  0  0  0  0
    0.0000    0.0000    0.0000 C   0  0  0  0  0  0  0  0  0  0  0  0
    0.0000    0.0000    0.0000 N   0  0  0  0  0  0  0  0  0  0  0  0
    0.0000    0.0000    0.0000 C   0  0  0  0  0  0  0  0  0  0  0  0
    0.0000    0.0000    0.0000 O   0  0  0  0  0  0  0  0  0  0  0  0
    0.0000    0.0000    0.0000 C   0  0  0  0  0  0  0  0  0  0  0  0
    0.0000    0.0000    0.0000 C   0  0  0  0  0  0  0  0  0  0  0  0
    0.0000    0.0000    0.0000 C   0  0  0  0  0  0  0  0  0  0  0  0
    0.0000    0.0000    0.0000 C   0  0  0  0  0  0  0  0  0  0  0  0
    0.0000    0.0000    0.0000 C   0  0  0  0  0  0  0  0  0  0  0  0
    0.0000    0.0000    0.0000 N   0  0  0  0  0  0  0  0  0  0  0  0
    0.0000    0.0000    0.0000 S   0  0  0  0  0  0  0  0  0  0  0  0
    0.0000    0.0000    0.0000 O   0  0  0  0  0  0  0  0  0  0  0  0
    0.0000    0.0000    0.0000 O   0  0  0  0  0  0  0  0  0  0  0  0
    0.0000    0.0000    0.0000 C   0  0  0  0  0  0  0  0  0  0  0  0
    0.0000    0.0000    0.0000 C   0  0  0  0  0  0  0  0  0  0  0  0
    0.0000    0.0000    0.0000 C   0  0  0  0  0  0  0  0  0  0  0  0
    0.0000    0.0000    0.0000 C   0  0  0  0  0  0  0  0  0  0  0  0
    0.0000    0.0000    0.0000 C   0  0  0  0  0  0  0  0  0  0  0  0
    0.0000    0.0000    0.0000 C   0  0  0  0  0  0  0  0  0  0  0  0
    0.0000    0.0000    0.0000 C   0  0  0  0  0  0  0  0  0  0  0  0
    0.0000    0.0000    0.0000 C   0  0  0  0  0  0  0  0  0  0  0  0
    0.0000    0.0000    0.0000 C   0  0  0  0  0  0  0  0  0  0  0  0
    0.0000    0.0000    0.0000 C   0  0  0  0  0  0  0  0  0  0  0  0
    0.0000    0.0000    0.0000 C   0  0  0  0  0  0  0  0  0  0  0  0
    0.0000    0.0000    0.0000 C   0  0  0  0  0  0  0  0  0  0  0  0
    0.0000    0.0000    0.0000 C   0  0  0  0  0  0  0  0  0  0  0  0
    0.0000    0.0000    0.0000 C   0  0  0  0  0  0  0  0  0  0  0  0
    0.0000    0.0000    0.0000 C   0  0  0  0  0  0  0  0  0  0  0  0
    0.0000    0.0000    0.0000 C   0  0  0  0  0  0  0  0  0  0  0  0
  1  2  1  0
  2  3  1  0
  3  4  1  0
  4  5  1  0
  5  6  1  0
  6  7  1  0
  7  8  2  0
  7  9  1  0
  9 10  2  0
 10 11  1  0
 11 12  2  0
 12 13  1  0
 13 14  1  0
 14 15  1  0
 15 16  2  0
 15 17  2  0
 15 18  1  0
 18 19  2  0
 19 20  1  0
 20 21  2  0
 21 22  1  0
 21 23  1  0
 23 24  2  0
 12 25  1  0
 25 26  2  0
  3 27  1  0
 27 28  1  0
 28 29  2  0
 29 30  1  0
 30 31  2  0
 31 32  1  0
 32 33  2  0
 26  9  1  0
 24 18  1  0
 33 28  1  0
M  END
>  <pIC50>  (648) 
4.99

>  <ChEMBL_ID>  (648) 
CHEMBL1736339

>  <document_journal>  (648) 
None

>  <bao_endpoint>  (648) 
BAO_0000190

>  <potential_duplicate>  (648) 
False

>  <uo_units>  (648) 
UO_0000065

>  <canonical_smiles>  (648) 
CCN(CCNC(=O)c1ccc(CNS(=O)(=O)c2ccc(C)cc2)cc1)Cc3ccccc3

>  <parent_molecule_chembl_id>  (648) 
CHEMBL1736339

>  <assay_type>  (648) 
F

>  <src_id>  (648) 
7

>  <ligand_efficiency>  (648) 
None

>  <standard_flag>  (648) 
True

>  <molecule_chembl_id>  (648) 
CHEMBL1736339

>  <target_organism>  (648) 
Homo sapiens

>  <standard_units>  (648) 
nM

>  <record_id>  (648) 
1386244

>  <document_chembl_id>  (648) 
CHEMBL1201862

>  <bao_format>  (648) 
BAO_0000019

>  <data_validity_description>  (648) 
None

>  <activity_id>  (648) 
5408107

>  <standard_type>  (648) 
IC50

>  <target_chembl_id>  (648) 
CHEMBL233

>  <data_validity_comment>  (648) 
None

>  <published_value>  (648) 
10.3

>  <document_year>  (648) 
None

>  <target_pref_name>  (648) 
Mu opioid receptor

>  <assay_chembl_id>  (648) 
CHEMBL1738030

>  <standard_relation>  (648) 
=

>  <assay_description>  (648) 
PUBCHEM_BIOASSAY: SAR Analysis of Antagonists of the MOR Receptor using an Image-Based Assay - Set 3. (Class of assay: confirmatory) [Related pubchem assays (depositor defined):AID1777, AID1785, AID1786, AID1966, AID2133, AID2136, AID2284, AID2285, AID2420]

>  <published_relation>  (648) 
=

>  <standard_value>  (648) 
10300

>  <qudt_units>  (648) 
http://www.openphacts.org/units/Nanomolar

>  <target_tax_id>  (648) 
9606

>  <bao_label>  (648) 
assay format

>  <published_units>  (648) 
uM

>  <pchembl_value>  (648) 
4.99

>  <published_type>  (648) 
IC50

>  <activity_comment>  (648) 
inactive

$$$$

     RDKit          

 34 36  0  0  0  0  0  0  0  0999 V2000
    0.0000    0.0000    0.0000 C   0  0  0  0  0  0  0  0  0  0  0  0
    0.0000    0.0000    0.0000 C   0  0  0  0  0  0  0  0  0  0  0  0
    0.0000    0.0000    0.0000 N   0  0  0  0  0  0  0  0  0  0  0  0
    0.0000    0.0000    0.0000 C   0  0  0  0  0  0  0  0  0  0  0  0
    0.0000    0.0000    0.0000 C   0  0  0  0  0  0  0  0  0  0  0  0
    0.0000    0.0000    0.0000 N   0  0  0  0  0  0  0  0  0  0  0  0
    0.0000    0.0000    0.0000 C   0  0  0  0  0  0  0  0  0  0  0  0
    0.0000    0.0000    0.0000 O   0  0  0  0  0  0  0  0  0  0  0  0
    0.0000    0.0000    0.0000 C   0  0  0  0  0  0  0  0  0  0  0  0
    0.0000    0.0000    0.0000 C   0  0  0  0  0  0  0  0  0  0  0  0
    0.0000    0.0000    0.0000 C   0  0  0  0  0  0  0  0  0  0  0  0
    0.0000    0.0000    0.0000 C   0  0  0  0  0  0  0  0  0  0  0  0
    0.0000    0.0000    0.0000 C   0  0  0  0  0  0  0  0  0  0  0  0
    0.0000    0.0000    0.0000 N   0  0  0  0  0  0  0  0  0  0  0  0
    0.0000    0.0000    0.0000 S   0  0  0  0  0  0  0  0  0  0  0  0
    0.0000    0.0000    0.0000 O   0  0  0  0  0  0  0  0  0  0  0  0
    0.0000    0.0000    0.0000 O   0  0  0  0  0  0  0  0  0  0  0  0
    0.0000    0.0000    0.0000 C   0  0  0  0  0  0  0  0  0  0  0  0
    0.0000    0.0000    0.0000 C   0  0  0  0  0  0  0  0  0  0  0  0
    0.0000    0.0000    0.0000 C   0  0  0  0  0  0  0  0  0  0  0  0
    0.0000    0.0000    0.0000 C   0  0  0  0  0  0  0  0  0  0  0  0
    0.0000    0.0000    0.0000 C   0  0  0  0  0  0  0  0  0  0  0  0
    0.0000    0.0000    0.0000 C   0  0  0  0  0  0  0  0  0  0  0  0
    0.0000    0.0000    0.0000 C   0  0  0  0  0  0  0  0  0  0  0  0
    0.0000    0.0000    0.0000 C   0  0  0  0  0  0  0  0  0  0  0  0
    0.0000    0.0000    0.0000 C   0  0  0  0  0  0  0  0  0  0  0  0
    0.0000    0.0000    0.0000 C   0  0  0  0  0  0  0  0  0  0  0  0
    0.0000    0.0000    0.0000 C   0  0  0  0  0  0  0  0  0  0  0  0
    0.0000    0.0000    0.0000 C   0  0  0  0  0  0  0  0  0  0  0  0
    0.0000    0.0000    0.0000 C   0  0  0  0  0  0  0  0  0  0  0  0
    0.0000    0.0000    0.0000 C   0  0  0  0  0  0  0  0  0  0  0  0
    0.0000    0.0000    0.0000 C   0  0  0  0  0  0  0  0  0  0  0  0
    0.0000    0.0000    0.0000 C   0  0  0  0  0  0  0  0  0  0  0  0
    0.0000    0.0000    0.0000 C   0  0  0  0  0  0  0  0  0  0  0  0
  1  2  1  0
  2  3  1  0
  3  4  1  0
  4  5  1  0
  5  6  1  0
  6  7  1  0
  7  8  2  0
  7  9  1  0
  9 10  2  0
 10 11  1  0
 11 12  2  0
 12 13  1  0
 13 14  1  0
 14 15  1  0
 15 16  2  0
 15 17  2  0
 15 18  1  0
 18 19  2  0
 19 20  1  0
 20 21  2  0
 21 22  1  0
 22 23  1  0
 21 24  1  0
 24 25  2  0
 12 26  1  0
 26 27  2  0
  3 28  1  0
 28 29  1  0
 29 30  2  0
 30 31  1  0
 31 32  2  0
 32 33  1  0
 33 34  2  0
 27  9  1  0
 25 18  1  0
 34 29  1  0
M  END
>  <pIC50>  (649) 
4.71

>  <ChEMBL_ID>  (649) 
CHEMBL1721727

>  <document_journal>  (649) 
None

>  <bao_endpoint>  (649) 
BAO_0000190

>  <potential_duplicate>  (649) 
False

>  <uo_units>  (649) 
UO_0000065

>  <canonical_smiles>  (649) 
CCN(CCNC(=O)c1ccc(CNS(=O)(=O)c2ccc(CC)cc2)cc1)Cc3ccccc3

>  <parent_molecule_chembl_id>  (649) 
CHEMBL1721727

>  <assay_type>  (649) 
F

>  <src_id>  (649) 
7

>  <ligand_efficiency>  (649) 
None

>  <standard_flag>  (649) 
True

>  <molecule_chembl_id>  (649) 
CHEMBL1721727

>  <target_organism>  (649) 
Homo sapiens

>  <standard_units>  (649) 
nM

>  <record_id>  (649) 
1386253

>  <document_chembl_id>  (649) 
CHEMBL1201862

>  <bao_format>  (649) 
BAO_0000019

>  <data_validity_description>  (649) 
None

>  <activity_id>  (649) 
5408110

>  <standard_type>  (649) 
IC50

>  <target_chembl_id>  (649) 
CHEMBL233

>  <data_validity_comment>  (649) 
None

>  <published_value>  (649) 
19.5

>  <document_year>  (649) 
None

>  <target_pref_name>  (649) 
Mu opioid receptor

>  <assay_chembl_id>  (649) 
CHEMBL1738030

>  <standard_relation>  (649) 
=

>  <assay_description>  (649) 
PUBCHEM_BIOASSAY: SAR Analysis of Antagonists of the MOR Receptor using an Image-Based Assay - Set 3. (Class of assay: confirmatory) [Related pubchem assays (depositor defined):AID1777, AID1785, AID1786, AID1966, AID2133, AID2136, AID2284, AID2285, AID2420]

>  <published_relation>  (649) 
=

>  <standard_value>  (649) 
19500

>  <qudt_units>  (649) 
http://www.openphacts.org/units/Nanomolar

>  <target_tax_id>  (649) 
9606

>  <bao_label>  (649) 
assay format

>  <published_units>  (649) 
uM

>  <pchembl_value>  (649) 
4.71

>  <published_type>  (649) 
IC50

>  <activity_comment>  (649) 
inactive

$$$$

     RDKit          

 34 38  0  0  0  0  0  0  0  0999 V2000
    0.0000    0.0000    0.0000 C   0  0  0  0  0  0  0  0  0  0  0  0
    0.0000    0.0000    0.0000 C   0  0  0  0  0  0  0  0  0  0  0  0
    0.0000    0.0000    0.0000 C   0  0  0  0  0  0  0  0  0  0  0  0
    0.0000    0.0000    0.0000 C   0  0  0  0  0  0  0  0  0  0  0  0
    0.0000    0.0000    0.0000 C   0  0  0  0  0  0  0  0  0  0  0  0
    0.0000    0.0000    0.0000 C   0  0  0  0  0  0  0  0  0  0  0  0
    0.0000    0.0000    0.0000 C   0  0  0  0  0  0  0  0  0  0  0  0
    0.0000    0.0000    0.0000 N   0  0  0  0  0  0  0  0  0  0  0  0
    0.0000    0.0000    0.0000 C   0  0  0  0  0  0  0  0  0  0  0  0
    0.0000    0.0000    0.0000 C   0  0  0  0  0  0  0  0  0  0  0  0
    0.0000    0.0000    0.0000 N   0  0  0  0  0  0  0  0  0  0  0  0
    0.0000    0.0000    0.0000 C   0  0  0  0  0  0  0  0  0  0  0  0
    0.0000    0.0000    0.0000 C   0  0  0  0  0  0  0  0  0  0  0  0
    0.0000    0.0000    0.0000 C   0  0  0  0  0  0  0  0  0  0  0  0
    0.0000    0.0000    0.0000 N   0  0  0  0  0  0  0  0  0  0  0  0
    0.0000    0.0000    0.0000 C   0  0  0  0  0  0  0  0  0  0  0  0
    0.0000    0.0000    0.0000 O   0  0  0  0  0  0  0  0  0  0  0  0
    0.0000    0.0000    0.0000 C   0  0  0  0  0  0  0  0  0  0  0  0
    0.0000    0.0000    0.0000 N   0  0  0  0  0  0  0  0  0  0  0  0
    0.0000    0.0000    0.0000 C   0  0  0  0  0  0  0  0  0  0  0  0
    0.0000    0.0000    0.0000 O   0  0  0  0  0  0  0  0  0  0  0  0
    0.0000    0.0000    0.0000 C   0  0  0  0  0  0  0  0  0  0  0  0
    0.0000    0.0000    0.0000 C   0  0  0  0  0  0  0  0  0  0  0  0
    0.0000    0.0000    0.0000 C   0  0  0  0  0  0  0  0  0  0  0  0
    0.0000    0.0000    0.0000 C   0  0  0  0  0  0  0  0  0  0  0  0
    0.0000    0.0000    0.0000 N   0  0  0  0  0  0  0  0  0  0  0  0
    0.0000    0.0000    0.0000 C   0  0  0  0  0  0  0  0  0  0  0  0
    0.0000    0.0000    0.0000 C   0  0  0  0  0  0  0  0  0  0  0  0
    0.0000    0.0000    0.0000 C   0  0  0  0  0  0  0  0  0  0  0  0
    0.0000    0.0000    0.0000 C   0  0  0  0  0  0  0  0  0  0  0  0
    0.0000    0.0000    0.0000 N   0  0  0  0  0  0  0  0  0  0  0  0
    0.0000    0.0000    0.0000 C   0  0  0  0  0  0  0  0  0  0  0  0
    0.0000    0.0000    0.0000 C   0  0  0  0  0  0  0  0  0  0  0  0
    0.0000    0.0000    0.0000 C   0  0  0  0  0  0  0  0  0  0  0  0
  1  2  1  0
  2  3  2  0
  3  4  1  0
  4  5  2  0
  5  6  1  0
  6  7  2  0
  5  8  1  0
  8  9  1  0
  9 10  1  0
 10 11  1  0
 11 12  1  0
 12 13  1  0
 13 14  1  0
 14 15  1  0
 15 16  1  0
 16 17  2  0
 16 18  1  0
 18 19  1  0
 19 20  1  0
 20 21  2  0
 20 22  1  0
 22 23  2  0
 23 24  1  0
 24 25  2  0
 25 26  1  0
 26 27  1  0
 27 28  2  0
 28 29  1  0
 29 30  2  0
 30 31  1  0
 31 32  2  0
 11 33  1  0
 33 34  1  0
  7  2  1  0
 34  8  1  0
 32 19  1  0
 26 22  1  0
 32 27  1  0
M  END
>  <pIC50>  (650) 
4.73

>  <ChEMBL_ID>  (650) 
CHEMBL1726155

>  <document_journal>  (650) 
None

>  <bao_endpoint>  (650) 
BAO_0000190

>  <potential_duplicate>  (650) 
False

>  <uo_units>  (650) 
UO_0000065

>  <canonical_smiles>  (650) 
Cc1ccc(cc1)N2CCN(CCCNC(=O)CN3C(=O)c4cccn4c5cccnc35)CC2

>  <parent_molecule_chembl_id>  (650) 
CHEMBL1726155

>  <assay_type>  (650) 
F

>  <src_id>  (650) 
7

>  <ligand_efficiency>  (650) 
None

>  <standard_flag>  (650) 
True

>  <molecule_chembl_id>  (650) 
CHEMBL1726155

>  <target_organism>  (650) 
Homo sapiens

>  <standard_units>  (650) 
nM

>  <record_id>  (650) 
1388041

>  <document_chembl_id>  (650) 
CHEMBL1201862

>  <bao_format>  (650) 
BAO_0000019

>  <data_validity_description>  (650) 
None

>  <activity_id>  (650) 
5408111

>  <standard_type>  (650) 
IC50

>  <target_chembl_id>  (650) 
CHEMBL233

>  <data_validity_comment>  (650) 
None

>  <published_value>  (650) 
18.8

>  <document_year>  (650) 
None

>  <target_pref_name>  (650) 
Mu opioid receptor

>  <assay_chembl_id>  (650) 
CHEMBL1738030

>  <standard_relation>  (650) 
=

>  <assay_description>  (650) 
PUBCHEM_BIOASSAY: SAR Analysis of Antagonists of the MOR Receptor using an Image-Based Assay - Set 3. (Class of assay: confirmatory) [Related pubchem assays (depositor defined):AID1777, AID1785, AID1786, AID1966, AID2133, AID2136, AID2284, AID2285, AID2420]

>  <published_relation>  (650) 
=

>  <standard_value>  (650) 
18800

>  <qudt_units>  (650) 
http://www.openphacts.org/units/Nanomolar

>  <target_tax_id>  (650) 
9606

>  <bao_label>  (650) 
assay format

>  <published_units>  (650) 
uM

>  <pchembl_value>  (650) 
4.73

>  <published_type>  (650) 
IC50

>  <activity_comment>  (650) 
inactive

$$$$

     RDKit          

 34 36  0  0  0  0  0  0  0  0999 V2000
    0.0000    0.0000    0.0000 C   0  0  0  0  0  0  0  0  0  0  0  0
    0.0000    0.0000    0.0000 C   0  0  0  0  0  0  0  0  0  0  0  0
    0.0000    0.0000    0.0000 C   0  0  0  0  0  0  0  0  0  0  0  0
    0.0000    0.0000    0.0000 N   0  0  0  0  0  0  0  0  0  0  0  0
    0.0000    0.0000    0.0000 C   0  0  0  0  0  0  0  0  0  0  0  0
    0.0000    0.0000    0.0000 C   0  0  0  0  0  0  0  0  0  0  0  0
    0.0000    0.0000    0.0000 N   0  0  0  0  0  0  0  0  0  0  0  0
    0.0000    0.0000    0.0000 C   0  0  0  0  0  0  0  0  0  0  0  0
    0.0000    0.0000    0.0000 O   0  0  0  0  0  0  0  0  0  0  0  0
    0.0000    0.0000    0.0000 C   0  0  0  0  0  0  0  0  0  0  0  0
    0.0000    0.0000    0.0000 C   0  0  0  0  0  0  0  0  0  0  0  0
    0.0000    0.0000    0.0000 C   0  0  0  0  0  0  0  0  0  0  0  0
    0.0000    0.0000    0.0000 C   0  0  0  0  0  0  0  0  0  0  0  0
    0.0000    0.0000    0.0000 C   0  0  0  0  0  0  0  0  0  0  0  0
    0.0000    0.0000    0.0000 N   0  0  0  0  0  0  0  0  0  0  0  0
    0.0000    0.0000    0.0000 S   0  0  0  0  0  0  0  0  0  0  0  0
    0.0000    0.0000    0.0000 O   0  0  0  0  0  0  0  0  0  0  0  0
    0.0000    0.0000    0.0000 O   0  0  0  0  0  0  0  0  0  0  0  0
    0.0000    0.0000    0.0000 C   0  0  0  0  0  0  0  0  0  0  0  0
    0.0000    0.0000    0.0000 C   0  0  0  0  0  0  0  0  0  0  0  0
    0.0000    0.0000    0.0000 C   0  0  0  0  0  0  0  0  0  0  0  0
    0.0000    0.0000    0.0000 C   0  0  0  0  0  0  0  0  0  0  0  0
    0.0000    0.0000    0.0000 C   0  0  0  0  0  0  0  0  0  0  0  0
    0.0000    0.0000    0.0000 C   0  0  0  0  0  0  0  0  0  0  0  0
    0.0000    0.0000    0.0000 C   0  0  0  0  0  0  0  0  0  0  0  0
    0.0000    0.0000    0.0000 C   0  0  0  0  0  0  0  0  0  0  0  0
    0.0000    0.0000    0.0000 C   0  0  0  0  0  0  0  0  0  0  0  0
    0.0000    0.0000    0.0000 C   0  0  0  0  0  0  0  0  0  0  0  0
    0.0000    0.0000    0.0000 C   0  0  0  0  0  0  0  0  0  0  0  0
    0.0000    0.0000    0.0000 C   0  0  0  0  0  0  0  0  0  0  0  0
    0.0000    0.0000    0.0000 C   0  0  0  0  0  0  0  0  0  0  0  0
    0.0000    0.0000    0.0000 C   0  0  0  0  0  0  0  0  0  0  0  0
    0.0000    0.0000    0.0000 C   0  0  0  0  0  0  0  0  0  0  0  0
    0.0000    0.0000    0.0000 C   0  0  0  0  0  0  0  0  0  0  0  0
  1  2  1  0
  2  3  1  0
  2  4  1  0
  4  5  1  0
  5  6  1  0
  6  7  1  0
  7  8  1  0
  8  9  2  0
  8 10  1  0
 10 11  2  0
 11 12  1  0
 12 13  2  0
 13 14  1  0
 14 15  1  0
 15 16  1  0
 16 17  2  0
 16 18  2  0
 16 19  1  0
 19 20  2  0
 20 21  1  0
 21 22  2  0
 22 23  1  0
 23 24  1  0
 23 25  2  0
 13 26  1  0
 26 27  2  0
  4 28  1  0
 28 29  1  0
 29 30  2  0
 30 31  1  0
 31 32  2  0
 32 33  1  0
 33 34  2  0
 27 10  1  0
 25 19  1  0
 34 29  1  0
M  END
>  <pIC50>  (651) 
5.1

>  <ChEMBL_ID>  (651) 
CHEMBL1721558

>  <document_journal>  (651) 
None

>  <bao_endpoint>  (651) 
BAO_0000190

>  <potential_duplicate>  (651) 
False

>  <uo_units>  (651) 
UO_0000065

>  <canonical_smiles>  (651) 
CC(C)N(CCNC(=O)c1ccc(CNS(=O)(=O)c2cccc(C)c2)cc1)Cc3ccccc3

>  <parent_molecule_chembl_id>  (651) 
CHEMBL1721558

>  <assay_type>  (651) 
F

>  <src_id>  (651) 
7

>  <ligand_efficiency>  (651) 
None

>  <standard_flag>  (651) 
True

>  <molecule_chembl_id>  (651) 
CHEMBL1721558

>  <target_organism>  (651) 
Homo sapiens

>  <standard_units>  (651) 
nM

>  <record_id>  (651) 
1386247

>  <document_chembl_id>  (651) 
CHEMBL1201862

>  <bao_format>  (651) 
BAO_0000019

>  <data_validity_description>  (651) 
None

>  <activity_id>  (651) 
5408113

>  <standard_type>  (651) 
IC50

>  <target_chembl_id>  (651) 
CHEMBL233

>  <data_validity_comment>  (651) 
None

>  <published_value>  (651) 
7.99

>  <document_year>  (651) 
None

>  <target_pref_name>  (651) 
Mu opioid receptor

>  <assay_chembl_id>  (651) 
CHEMBL1738030

>  <standard_relation>  (651) 
=

>  <assay_description>  (651) 
PUBCHEM_BIOASSAY: SAR Analysis of Antagonists of the MOR Receptor using an Image-Based Assay - Set 3. (Class of assay: confirmatory) [Related pubchem assays (depositor defined):AID1777, AID1785, AID1786, AID1966, AID2133, AID2136, AID2284, AID2285, AID2420]

>  <published_relation>  (651) 
=

>  <standard_value>  (651) 
7990

>  <qudt_units>  (651) 
http://www.openphacts.org/units/Nanomolar

>  <target_tax_id>  (651) 
9606

>  <bao_label>  (651) 
assay format

>  <published_units>  (651) 
uM

>  <pchembl_value>  (651) 
5.1

>  <published_type>  (651) 
IC50

>  <activity_comment>  (651) 
Active

$$$$

     RDKit          

 34 36  0  0  0  0  0  0  0  0999 V2000
    0.0000    0.0000    0.0000 C   0  0  0  0  0  0  0  0  0  0  0  0
    0.0000    0.0000    0.0000 C   0  0  0  0  0  0  0  0  0  0  0  0
    0.0000    0.0000    0.0000 C   0  0  0  0  0  0  0  0  0  0  0  0
    0.0000    0.0000    0.0000 N   0  0  0  0  0  0  0  0  0  0  0  0
    0.0000    0.0000    0.0000 C   0  0  0  0  0  0  0  0  0  0  0  0
    0.0000    0.0000    0.0000 C   0  0  0  0  0  0  0  0  0  0  0  0
    0.0000    0.0000    0.0000 N   0  0  0  0  0  0  0  0  0  0  0  0
    0.0000    0.0000    0.0000 C   0  0  0  0  0  0  0  0  0  0  0  0
    0.0000    0.0000    0.0000 O   0  0  0  0  0  0  0  0  0  0  0  0
    0.0000    0.0000    0.0000 C   0  0  0  0  0  0  0  0  0  0  0  0
    0.0000    0.0000    0.0000 C   0  0  0  0  0  0  0  0  0  0  0  0
    0.0000    0.0000    0.0000 C   0  0  0  0  0  0  0  0  0  0  0  0
    0.0000    0.0000    0.0000 C   0  0  0  0  0  0  0  0  0  0  0  0
    0.0000    0.0000    0.0000 C   0  0  0  0  0  0  0  0  0  0  0  0
    0.0000    0.0000    0.0000 N   0  0  0  0  0  0  0  0  0  0  0  0
    0.0000    0.0000    0.0000 S   0  0  0  0  0  0  0  0  0  0  0  0
    0.0000    0.0000    0.0000 O   0  0  0  0  0  0  0  0  0  0  0  0
    0.0000    0.0000    0.0000 O   0  0  0  0  0  0  0  0  0  0  0  0
    0.0000    0.0000    0.0000 C   0  0  0  0  0  0  0  0  0  0  0  0
    0.0000    0.0000    0.0000 C   0  0  0  0  0  0  0  0  0  0  0  0
    0.0000    0.0000    0.0000 C   0  0  0  0  0  0  0  0  0  0  0  0
    0.0000    0.0000    0.0000 C   0  0  0  0  0  0  0  0  0  0  0  0
    0.0000    0.0000    0.0000 Br  0  0  0  0  0  0  0  0  0  0  0  0
    0.0000    0.0000    0.0000 C   0  0  0  0  0  0  0  0  0  0  0  0
    0.0000    0.0000    0.0000 C   0  0  0  0  0  0  0  0  0  0  0  0
    0.0000    0.0000    0.0000 C   0  0  0  0  0  0  0  0  0  0  0  0
    0.0000    0.0000    0.0000 C   0  0  0  0  0  0  0  0  0  0  0  0
    0.0000    0.0000    0.0000 C   0  0  0  0  0  0  0  0  0  0  0  0
    0.0000    0.0000    0.0000 C   0  0  0  0  0  0  0  0  0  0  0  0
    0.0000    0.0000    0.0000 C   0  0  0  0  0  0  0  0  0  0  0  0
    0.0000    0.0000    0.0000 C   0  0  0  0  0  0  0  0  0  0  0  0
    0.0000    0.0000    0.0000 C   0  0  0  0  0  0  0  0  0  0  0  0
    0.0000    0.0000    0.0000 C   0  0  0  0  0  0  0  0  0  0  0  0
    0.0000    0.0000    0.0000 C   0  0  0  0  0  0  0  0  0  0  0  0
  1  2  1  0
  2  3  1  0
  2  4  1  0
  4  5  1  0
  5  6  1  0
  6  7  1  0
  7  8  1  0
  8  9  2  0
  8 10  1  0
 10 11  2  0
 11 12  1  0
 12 13  2  0
 13 14  1  0
 14 15  1  0
 15 16  1  0
 16 17  2  0
 16 18  2  0
 16 19  1  0
 19 20  2  0
 20 21  1  0
 21 22  2  0
 22 23  1  0
 22 24  1  0
 24 25  2  0
 13 26  1  0
 26 27  2  0
  4 28  1  0
 28 29  1  0
 29 30  2  0
 30 31  1  0
 31 32  2  0
 32 33  1  0
 33 34  2  0
 27 10  1  0
 25 19  1  0
 34 29  1  0
M  END
>  <pIC50>  (652) 
5.49

>  <ChEMBL_ID>  (652) 
CHEMBL1726077

>  <document_journal>  (652) 
None

>  <bao_endpoint>  (652) 
BAO_0000190

>  <potential_duplicate>  (652) 
False

>  <uo_units>  (652) 
UO_0000065

>  <canonical_smiles>  (652) 
CC(C)N(CCNC(=O)c1ccc(CNS(=O)(=O)c2ccc(Br)cc2)cc1)Cc3ccccc3

>  <parent_molecule_chembl_id>  (652) 
CHEMBL1726077

>  <assay_type>  (652) 
F

>  <src_id>  (652) 
7

>  <ligand_efficiency>  (652) 
None

>  <standard_flag>  (652) 
True

>  <molecule_chembl_id>  (652) 
CHEMBL1726077

>  <target_organism>  (652) 
Homo sapiens

>  <standard_units>  (652) 
nM

>  <record_id>  (652) 
1386284

>  <document_chembl_id>  (652) 
CHEMBL1201862

>  <bao_format>  (652) 
BAO_0000019

>  <data_validity_description>  (652) 
None

>  <activity_id>  (652) 
5408114

>  <standard_type>  (652) 
IC50

>  <target_chembl_id>  (652) 
CHEMBL233

>  <data_validity_comment>  (652) 
None

>  <published_value>  (652) 
3.22

>  <document_year>  (652) 
None

>  <target_pref_name>  (652) 
Mu opioid receptor

>  <assay_chembl_id>  (652) 
CHEMBL1738030

>  <standard_relation>  (652) 
=

>  <assay_description>  (652) 
PUBCHEM_BIOASSAY: SAR Analysis of Antagonists of the MOR Receptor using an Image-Based Assay - Set 3. (Class of assay: confirmatory) [Related pubchem assays (depositor defined):AID1777, AID1785, AID1786, AID1966, AID2133, AID2136, AID2284, AID2285, AID2420]

>  <published_relation>  (652) 
=

>  <standard_value>  (652) 
3220

>  <qudt_units>  (652) 
http://www.openphacts.org/units/Nanomolar

>  <target_tax_id>  (652) 
9606

>  <bao_label>  (652) 
assay format

>  <published_units>  (652) 
uM

>  <pchembl_value>  (652) 
5.49

>  <published_type>  (652) 
IC50

>  <activity_comment>  (652) 
Active

$$$$

     RDKit          

 36 40  0  0  0  0  0  0  0  0999 V2000
    0.0000    0.0000    0.0000 C   0  0  0  0  0  0  0  0  0  0  0  0
    0.0000    0.0000    0.0000 O   0  0  0  0  0  0  0  0  0  0  0  0
    0.0000    0.0000    0.0000 C   0  0  0  0  0  0  0  0  0  0  0  0
    0.0000    0.0000    0.0000 C   0  0  0  0  0  0  0  0  0  0  0  0
    0.0000    0.0000    0.0000 C   0  0  0  0  0  0  0  0  0  0  0  0
    0.0000    0.0000    0.0000 C   0  0  0  0  0  0  0  0  0  0  0  0
    0.0000    0.0000    0.0000 C   0  0  0  0  0  0  0  0  0  0  0  0
    0.0000    0.0000    0.0000 C   0  0  0  0  0  0  0  0  0  0  0  0
    0.0000    0.0000    0.0000 N   0  0  0  0  0  0  0  0  0  0  0  0
    0.0000    0.0000    0.0000 C   0  0  0  0  0  0  0  0  0  0  0  0
    0.0000    0.0000    0.0000 C   0  0  0  0  0  0  0  0  0  0  0  0
    0.0000    0.0000    0.0000 N   0  0  0  0  0  0  0  0  0  0  0  0
    0.0000    0.0000    0.0000 C   0  0  0  0  0  0  0  0  0  0  0  0
    0.0000    0.0000    0.0000 C   0  0  0  0  0  0  0  0  0  0  0  0
    0.0000    0.0000    0.0000 C   0  0  0  0  0  0  0  0  0  0  0  0
    0.0000    0.0000    0.0000 N   0  0  0  0  0  0  0  0  0  0  0  0
    0.0000    0.0000    0.0000 C   0  0  0  0  0  0  0  0  0  0  0  0
    0.0000    0.0000    0.0000 O   0  0  0  0  0  0  0  0  0  0  0  0
    0.0000    0.0000    0.0000 C   0  0  0  0  0  0  0  0  0  0  0  0
    0.0000    0.0000    0.0000 N   0  0  0  0  0  0  0  0  0  0  0  0
    0.0000    0.0000    0.0000 C   0  0  0  0  0  0  0  0  0  0  0  0
    0.0000    0.0000    0.0000 O   0  0  0  0  0  0  0  0  0  0  0  0
    0.0000    0.0000    0.0000 C   0  0  0  0  0  0  0  0  0  0  0  0
    0.0000    0.0000    0.0000 C   0  0  0  0  0  0  0  0  0  0  0  0
    0.0000    0.0000    0.0000 C   0  0  0  0  0  0  0  0  0  0  0  0
    0.0000    0.0000    0.0000 C   0  0  0  0  0  0  0  0  0  0  0  0
    0.0000    0.0000    0.0000 N   0  0  0  0  0  0  0  0  0  0  0  0
    0.0000    0.0000    0.0000 C   0  0  0  0  0  0  0  0  0  0  0  0
    0.0000    0.0000    0.0000 C   0  0  0  0  0  0  0  0  0  0  0  0
    0.0000    0.0000    0.0000 C   0  0  0  0  0  0  0  0  0  0  0  0
    0.0000    0.0000    0.0000 Br  0  0  0  0  0  0  0  0  0  0  0  0
    0.0000    0.0000    0.0000 C   0  0  0  0  0  0  0  0  0  0  0  0
    0.0000    0.0000    0.0000 N   0  0  0  0  0  0  0  0  0  0  0  0
    0.0000    0.0000    0.0000 C   0  0  0  0  0  0  0  0  0  0  0  0
    0.0000    0.0000    0.0000 C   0  0  0  0  0  0  0  0  0  0  0  0
    0.0000    0.0000    0.0000 C   0  0  0  0  0  0  0  0  0  0  0  0
  1  2  1  0
  2  3  1  0
  3  4  2  0
  4  5  1  0
  5  6  2  0
  6  7  1  0
  7  8  2  0
  6  9  1  0
  9 10  1  0
 10 11  1  0
 11 12  1  0
 12 13  1  0
 13 14  1  0
 14 15  1  0
 15 16  1  0
 16 17  1  0
 17 18  2  0
 17 19  1  0
 19 20  1  0
 20 21  1  0
 21 22  2  0
 21 23  1  0
 23 24  2  0
 24 25  1  0
 25 26  2  0
 26 27  1  0
 27 28  1  0
 28 29  2  0
 29 30  1  0
 30 31  1  0
 30 32  2  0
 32 33  1  0
 33 34  2  0
 12 35  1  0
 35 36  1  0
  8  3  1  0
 36  9  1  0
 34 20  1  0
 27 23  1  0
 34 28  1  0
M  END
>  <pIC50>  (653) 
4.99

>  <ChEMBL_ID>  (653) 
CHEMBL1711929

>  <document_journal>  (653) 
None

>  <bao_endpoint>  (653) 
BAO_0000190

>  <potential_duplicate>  (653) 
False

>  <uo_units>  (653) 
UO_0000065

>  <canonical_smiles>  (653) 
COc1ccc(cc1)N2CCN(CCCNC(=O)CN3C(=O)c4cccn4c5cc(Br)cnc35)CC2

>  <parent_molecule_chembl_id>  (653) 
CHEMBL1711929

>  <assay_type>  (653) 
F

>  <src_id>  (653) 
7

>  <ligand_efficiency>  (653) 
None

>  <standard_flag>  (653) 
True

>  <molecule_chembl_id>  (653) 
CHEMBL1711929

>  <target_organism>  (653) 
Homo sapiens

>  <standard_units>  (653) 
nM

>  <record_id>  (653) 
1388329

>  <document_chembl_id>  (653) 
CHEMBL1201862

>  <bao_format>  (653) 
BAO_0000019

>  <data_validity_description>  (653) 
None

>  <activity_id>  (653) 
5408117

>  <standard_type>  (653) 
IC50

>  <target_chembl_id>  (653) 
CHEMBL233

>  <data_validity_comment>  (653) 
None

>  <published_value>  (653) 
10.3

>  <document_year>  (653) 
None

>  <target_pref_name>  (653) 
Mu opioid receptor

>  <assay_chembl_id>  (653) 
CHEMBL1738030

>  <standard_relation>  (653) 
=

>  <assay_description>  (653) 
PUBCHEM_BIOASSAY: SAR Analysis of Antagonists of the MOR Receptor using an Image-Based Assay - Set 3. (Class of assay: confirmatory) [Related pubchem assays (depositor defined):AID1777, AID1785, AID1786, AID1966, AID2133, AID2136, AID2284, AID2285, AID2420]

>  <published_relation>  (653) 
=

>  <standard_value>  (653) 
10300

>  <qudt_units>  (653) 
http://www.openphacts.org/units/Nanomolar

>  <target_tax_id>  (653) 
9606

>  <bao_label>  (653) 
assay format

>  <published_units>  (653) 
uM

>  <pchembl_value>  (653) 
4.99

>  <published_type>  (653) 
IC50

>  <activity_comment>  (653) 
inactive

$$$$

     RDKit          

 35 38  0  0  0  0  0  0  0  0999 V2000
    0.0000    0.0000    0.0000 C   0  0  0  0  0  0  0  0  0  0  0  0
    0.0000    0.0000    0.0000 C   0  0  0  0  0  0  0  0  0  0  0  0
    0.0000    0.0000    0.0000 C   0  0  0  0  0  0  0  0  0  0  0  0
    0.0000    0.0000    0.0000 C   0  0  0  0  0  0  0  0  0  0  0  0
    0.0000    0.0000    0.0000 C   0  0  0  0  0  0  0  0  0  0  0  0
    0.0000    0.0000    0.0000 C   0  0  0  0  0  0  0  0  0  0  0  0
    0.0000    0.0000    0.0000 C   0  0  0  0  0  0  0  0  0  0  0  0
    0.0000    0.0000    0.0000 S   0  0  0  0  0  0  0  0  0  0  0  0
    0.0000    0.0000    0.0000 O   0  0  0  0  0  0  0  0  0  0  0  0
    0.0000    0.0000    0.0000 O   0  0  0  0  0  0  0  0  0  0  0  0
    0.0000    0.0000    0.0000 N   0  0  0  0  0  0  0  0  0  0  0  0
    0.0000    0.0000    0.0000 C   0  0  0  0  0  0  0  0  0  0  0  0
    0.0000    0.0000    0.0000 C   0  0  0  0  0  0  0  0  0  0  0  0
    0.0000    0.0000    0.0000 C   0  0  0  0  0  0  0  0  0  0  0  0
    0.0000    0.0000    0.0000 C   0  0  0  0  0  0  0  0  0  0  0  0
    0.0000    0.0000    0.0000 C   0  0  0  0  0  0  0  0  0  0  0  0
    0.0000    0.0000    0.0000 C   0  0  0  0  0  0  0  0  0  0  0  0
    0.0000    0.0000    0.0000 C   0  0  0  0  0  0  0  0  0  0  0  0
    0.0000    0.0000    0.0000 C   0  0  0  0  0  0  0  0  0  0  0  0
    0.0000    0.0000    0.0000 O   0  0  0  0  0  0  0  0  0  0  0  0
    0.0000    0.0000    0.0000 N   0  0  0  0  0  0  0  0  0  0  0  0
    0.0000    0.0000    0.0000 C   0  0  0  0  0  0  0  0  0  0  0  0
    0.0000    0.0000    0.0000 C   0  0  0  0  0  0  0  0  0  0  0  0
    0.0000    0.0000    0.0000 N   0  0  0  0  0  0  0  0  0  0  0  0
    0.0000    0.0000    0.0000 C   0  0  0  0  0  0  0  0  0  0  0  0
    0.0000    0.0000    0.0000 C   0  0  0  0  0  0  0  0  0  0  0  0
    0.0000    0.0000    0.0000 C   0  0  0  0  0  0  0  0  0  0  0  0
    0.0000    0.0000    0.0000 C   0  0  0  0  0  0  0  0  0  0  0  0
    0.0000    0.0000    0.0000 C   0  0  0  0  0  0  0  0  0  0  0  0
    0.0000    0.0000    0.0000 C   0  0  0  0  0  0  0  0  0  0  0  0
    0.0000    0.0000    0.0000 C   0  0  0  0  0  0  0  0  0  0  0  0
    0.0000    0.0000    0.0000 C   0  0  0  0  0  0  0  0  0  0  0  0
    0.0000    0.0000    0.0000 C   0  0  0  0  0  0  0  0  0  0  0  0
    0.0000    0.0000    0.0000 C   0  0  0  0  0  0  0  0  0  0  0  0
    0.0000    0.0000    0.0000 C   0  0  0  0  0  0  0  0  0  0  0  0
  1  2  1  0
  2  3  2  0
  3  4  1  0
  4  5  2  0
  5  6  1  0
  6  7  2  0
  5  8  1  0
  8  9  2  0
  8 10  2  0
  8 11  1  0
 11 12  1  0
 12 13  1  0
 13 14  2  0
 14 15  1  0
 15 16  2  0
 16 17  1  0
 17 18  2  0
 16 19  1  0
 19 20  2  0
 19 21  1  0
 21 22  1  0
 22 23  1  0
 23 24  1  0
 24 25  1  0
 25 26  1  0
 26 27  1  0
 27 28  1  0
 28 29  1  0
 27 30  1  0
 30 31  2  0
 31 32  1  0
 32 33  2  0
 33 34  1  0
 34 35  2  0
  7  2  1  0
 18 13  1  0
 29 24  1  0
 35 30  1  0
M  END
>  <pIC50>  (654) 
5.41

>  <ChEMBL_ID>  (654) 
CHEMBL1702166

>  <document_journal>  (654) 
None

>  <bao_endpoint>  (654) 
BAO_0000190

>  <potential_duplicate>  (654) 
False

>  <uo_units>  (654) 
UO_0000065

>  <canonical_smiles>  (654) 
Cc1ccc(cc1)S(=O)(=O)NCc2ccc(cc2)C(=O)NCCN3CCC(CC3)c4ccccc4

>  <parent_molecule_chembl_id>  (654) 
CHEMBL1702166

>  <assay_type>  (654) 
F

>  <src_id>  (654) 
7

>  <ligand_efficiency>  (654) 
None

>  <standard_flag>  (654) 
True

>  <molecule_chembl_id>  (654) 
CHEMBL1702166

>  <target_organism>  (654) 
Homo sapiens

>  <standard_units>  (654) 
nM

>  <record_id>  (654) 
1389292

>  <document_chembl_id>  (654) 
CHEMBL1201862

>  <bao_format>  (654) 
BAO_0000019

>  <data_validity_description>  (654) 
None

>  <activity_id>  (654) 
5408118

>  <standard_type>  (654) 
IC50

>  <target_chembl_id>  (654) 
CHEMBL233

>  <data_validity_comment>  (654) 
None

>  <published_value>  (654) 
3.88

>  <document_year>  (654) 
None

>  <target_pref_name>  (654) 
Mu opioid receptor

>  <assay_chembl_id>  (654) 
CHEMBL1738030

>  <standard_relation>  (654) 
=

>  <assay_description>  (654) 
PUBCHEM_BIOASSAY: SAR Analysis of Antagonists of the MOR Receptor using an Image-Based Assay - Set 3. (Class of assay: confirmatory) [Related pubchem assays (depositor defined):AID1777, AID1785, AID1786, AID1966, AID2133, AID2136, AID2284, AID2285, AID2420]

>  <published_relation>  (654) 
=

>  <standard_value>  (654) 
3880

>  <qudt_units>  (654) 
http://www.openphacts.org/units/Nanomolar

>  <target_tax_id>  (654) 
9606

>  <bao_label>  (654) 
assay format

>  <published_units>  (654) 
uM

>  <pchembl_value>  (654) 
5.41

>  <published_type>  (654) 
IC50

>  <activity_comment>  (654) 
Active

$$$$

     RDKit          

 38 42  0  0  0  0  0  0  0  0999 V2000
    0.0000    0.0000    0.0000 C   0  0  0  0  0  0  0  0  0  0  0  0
    0.0000    0.0000    0.0000 O   0  0  0  0  0  0  0  0  0  0  0  0
    0.0000    0.0000    0.0000 C   0  0  0  0  0  0  0  0  0  0  0  0
    0.0000    0.0000    0.0000 C   0  0  0  0  0  0  0  0  0  0  0  0
    0.0000    0.0000    0.0000 C   0  0  0  0  0  0  0  0  0  0  0  0
    0.0000    0.0000    0.0000 C   0  0  0  0  0  0  0  0  0  0  0  0
    0.0000    0.0000    0.0000 N   0  0  0  0  0  0  0  0  0  0  0  0
    0.0000    0.0000    0.0000 C   0  0  0  0  0  0  0  0  0  0  0  0
    0.0000    0.0000    0.0000 C   0  0  0  0  0  0  0  0  0  0  0  0
    0.0000    0.0000    0.0000 N   0  0  0  0  0  0  0  0  0  0  0  0
    0.0000    0.0000    0.0000 C   0  0  0  0  0  0  0  0  0  0  0  0
    0.0000    0.0000    0.0000 C   0  0  0  0  0  0  0  0  0  0  0  0
    0.0000    0.0000    0.0000 C   0  0  0  0  0  0  0  0  0  0  0  0
    0.0000    0.0000    0.0000 N   0  0  0  0  0  0  0  0  0  0  0  0
    0.0000    0.0000    0.0000 C   0  0  0  0  0  0  0  0  0  0  0  0
    0.0000    0.0000    0.0000 O   0  0  0  0  0  0  0  0  0  0  0  0
    0.0000    0.0000    0.0000 C   0  0  0  0  0  0  0  0  0  0  0  0
    0.0000    0.0000    0.0000 N   0  0  0  0  0  0  0  0  0  0  0  0
    0.0000    0.0000    0.0000 C   0  0  0  0  0  0  0  0  0  0  0  0
    0.0000    0.0000    0.0000 O   0  0  0  0  0  0  0  0  0  0  0  0
    0.0000    0.0000    0.0000 C   0  0  0  0  0  0  0  0  0  0  0  0
    0.0000    0.0000    0.0000 C   0  0  0  0  0  0  0  0  0  0  0  0
    0.0000    0.0000    0.0000 C   0  0  0  0  0  0  0  0  0  0  0  0
    0.0000    0.0000    0.0000 C   0  0  0  0  0  0  0  0  0  0  0  0
    0.0000    0.0000    0.0000 N   0  0  0  0  0  0  0  0  0  0  0  0
    0.0000    0.0000    0.0000 C   0  0  0  0  0  0  0  0  0  0  0  0
    0.0000    0.0000    0.0000 C   0  0  0  0  0  0  0  0  0  0  0  0
    0.0000    0.0000    0.0000 C   0  0  0  0  0  0  0  0  0  0  0  0
    0.0000    0.0000    0.0000 Br  0  0  0  0  0  0  0  0  0  0  0  0
    0.0000    0.0000    0.0000 C   0  0  0  0  0  0  0  0  0  0  0  0
    0.0000    0.0000    0.0000 N   0  0  0  0  0  0  0  0  0  0  0  0
    0.0000    0.0000    0.0000 C   0  0  0  0  0  0  0  0  0  0  0  0
    0.0000    0.0000    0.0000 C   0  0  0  0  0  0  0  0  0  0  0  0
    0.0000    0.0000    0.0000 C   0  0  0  0  0  0  0  0  0  0  0  0
    0.0000    0.0000    0.0000 C   0  0  0  0  0  0  0  0  0  0  0  0
    0.0000    0.0000    0.0000 O   0  0  0  0  0  0  0  0  0  0  0  0
    0.0000    0.0000    0.0000 C   0  0  0  0  0  0  0  0  0  0  0  0
    0.0000    0.0000    0.0000 C   0  0  0  0  0  0  0  0  0  0  0  0
  1  2  1  0
  2  3  1  0
  3  4  2  0
  4  5  1  0
  5  6  2  0
  6  7  1  0
  7  8  1  0
  8  9  1  0
  9 10  1  0
 10 11  1  0
 11 12  1  0
 12 13  1  0
 13 14  1  0
 14 15  1  0
 15 16  2  0
 15 17  1  0
 17 18  1  0
 18 19  1  0
 19 20  2  0
 19 21  1  0
 21 22  2  0
 22 23  1  0
 23 24  2  0
 24 25  1  0
 25 26  1  0
 26 27  2  0
 27 28  1  0
 28 29  1  0
 28 30  2  0
 30 31  1  0
 31 32  2  0
 10 33  1  0
 33 34  1  0
  6 35  1  0
 35 36  1  0
 36 37  1  0
 35 38  2  0
 38  3  1  0
 34  7  1  0
 32 18  1  0
 25 21  1  0
 32 26  1  0
M  END
>  <pIC50>  (655) 
4.99

>  <ChEMBL_ID>  (655) 
CHEMBL1702752

>  <document_journal>  (655) 
None

>  <bao_endpoint>  (655) 
BAO_0000190

>  <potential_duplicate>  (655) 
False

>  <uo_units>  (655) 
UO_0000065

>  <canonical_smiles>  (655) 
COc1ccc(N2CCN(CCCNC(=O)CN3C(=O)c4cccn4c5cc(Br)cnc35)CC2)c(OC)c1

>  <parent_molecule_chembl_id>  (655) 
CHEMBL1702752

>  <assay_type>  (655) 
F

>  <src_id>  (655) 
7

>  <ligand_efficiency>  (655) 
None

>  <standard_flag>  (655) 
True

>  <molecule_chembl_id>  (655) 
CHEMBL1702752

>  <target_organism>  (655) 
Homo sapiens

>  <standard_units>  (655) 
nM

>  <record_id>  (655) 
1388331

>  <document_chembl_id>  (655) 
CHEMBL1201862

>  <bao_format>  (655) 
BAO_0000019

>  <data_validity_description>  (655) 
None

>  <activity_id>  (655) 
5408122

>  <standard_type>  (655) 
IC50

>  <target_chembl_id>  (655) 
CHEMBL233

>  <data_validity_comment>  (655) 
None

>  <published_value>  (655) 
10.2

>  <document_year>  (655) 
None

>  <target_pref_name>  (655) 
Mu opioid receptor

>  <assay_chembl_id>  (655) 
CHEMBL1738030

>  <standard_relation>  (655) 
=

>  <assay_description>  (655) 
PUBCHEM_BIOASSAY: SAR Analysis of Antagonists of the MOR Receptor using an Image-Based Assay - Set 3. (Class of assay: confirmatory) [Related pubchem assays (depositor defined):AID1777, AID1785, AID1786, AID1966, AID2133, AID2136, AID2284, AID2285, AID2420]

>  <published_relation>  (655) 
=

>  <standard_value>  (655) 
10200

>  <qudt_units>  (655) 
http://www.openphacts.org/units/Nanomolar

>  <target_tax_id>  (655) 
9606

>  <bao_label>  (655) 
assay format

>  <published_units>  (655) 
uM

>  <pchembl_value>  (655) 
4.99

>  <published_type>  (655) 
IC50

>  <activity_comment>  (655) 
inactive

$$$$

     RDKit          

 38 42  0  0  0  0  0  0  0  0999 V2000
    0.0000    0.0000    0.0000 C   0  0  0  0  0  0  0  0  0  0  0  0
    0.0000    0.0000    0.0000 O   0  0  0  0  0  0  0  0  0  0  0  0
    0.0000    0.0000    0.0000 C   0  0  0  0  0  0  0  0  0  0  0  0
    0.0000    0.0000    0.0000 C   0  0  0  0  0  0  0  0  0  0  0  0
    0.0000    0.0000    0.0000 C   0  0  0  0  0  0  0  0  0  0  0  0
    0.0000    0.0000    0.0000 C   0  0  0  0  0  0  0  0  0  0  0  0
    0.0000    0.0000    0.0000 N   0  0  0  0  0  0  0  0  0  0  0  0
    0.0000    0.0000    0.0000 C   0  0  0  0  0  0  0  0  0  0  0  0
    0.0000    0.0000    0.0000 C   0  0  0  0  0  0  0  0  0  0  0  0
    0.0000    0.0000    0.0000 N   0  0  0  0  0  0  0  0  0  0  0  0
    0.0000    0.0000    0.0000 C   0  0  0  0  0  0  0  0  0  0  0  0
    0.0000    0.0000    0.0000 C   0  0  0  0  0  0  0  0  0  0  0  0
    0.0000    0.0000    0.0000 C   0  0  0  0  0  0  0  0  0  0  0  0
    0.0000    0.0000    0.0000 N   0  0  0  0  0  0  0  0  0  0  0  0
    0.0000    0.0000    0.0000 C   0  0  0  0  0  0  0  0  0  0  0  0
    0.0000    0.0000    0.0000 O   0  0  0  0  0  0  0  0  0  0  0  0
    0.0000    0.0000    0.0000 C   0  0  0  0  0  0  0  0  0  0  0  0
    0.0000    0.0000    0.0000 N   0  0  0  0  0  0  0  0  0  0  0  0
    0.0000    0.0000    0.0000 C   0  0  0  0  0  0  0  0  0  0  0  0
    0.0000    0.0000    0.0000 O   0  0  0  0  0  0  0  0  0  0  0  0
    0.0000    0.0000    0.0000 C   0  0  0  0  0  0  0  0  0  0  0  0
    0.0000    0.0000    0.0000 C   0  0  0  0  0  0  0  0  0  0  0  0
    0.0000    0.0000    0.0000 C   0  0  0  0  0  0  0  0  0  0  0  0
    0.0000    0.0000    0.0000 C   0  0  0  0  0  0  0  0  0  0  0  0
    0.0000    0.0000    0.0000 N   0  0  0  0  0  0  0  0  0  0  0  0
    0.0000    0.0000    0.0000 C   0  0  0  0  0  0  0  0  0  0  0  0
    0.0000    0.0000    0.0000 C   0  0  0  0  0  0  0  0  0  0  0  0
    0.0000    0.0000    0.0000 C   0  0  0  0  0  0  0  0  0  0  0  0
    0.0000    0.0000    0.0000 C   0  0  0  0  0  0  0  0  0  0  0  0
    0.0000    0.0000    0.0000 C   0  0  0  0  0  0  0  0  0  0  0  0
    0.0000    0.0000    0.0000 N   0  0  0  0  0  0  0  0  0  0  0  0
    0.0000    0.0000    0.0000 C   0  0  0  0  0  0  0  0  0  0  0  0
    0.0000    0.0000    0.0000 C   0  0  0  0  0  0  0  0  0  0  0  0
    0.0000    0.0000    0.0000 C   0  0  0  0  0  0  0  0  0  0  0  0
    0.0000    0.0000    0.0000 C   0  0  0  0  0  0  0  0  0  0  0  0
    0.0000    0.0000    0.0000 O   0  0  0  0  0  0  0  0  0  0  0  0
    0.0000    0.0000    0.0000 C   0  0  0  0  0  0  0  0  0  0  0  0
    0.0000    0.0000    0.0000 C   0  0  0  0  0  0  0  0  0  0  0  0
  1  2  1  0
  2  3  1  0
  3  4  2  0
  4  5  1  0
  5  6  2  0
  6  7  1  0
  7  8  1  0
  8  9  1  0
  9 10  1  0
 10 11  1  0
 11 12  1  0
 12 13  1  0
 13 14  1  0
 14 15  1  0
 15 16  2  0
 15 17  1  0
 17 18  1  0
 18 19  1  0
 19 20  2  0
 19 21  1  0
 21 22  2  0
 22 23  1  0
 23 24  2  0
 24 25  1  0
 25 26  1  0
 26 27  2  0
 27 28  1  0
 27 29  1  0
 29 30  2  0
 30 31  1  0
 31 32  2  0
 10 33  1  0
 33 34  1  0
  6 35  1  0
 35 36  1  0
 36 37  1  0
 35 38  2  0
 38  3  1  0
 34  7  1  0
 32 18  1  0
 25 21  1  0
 32 26  1  0
M  END
>  <pIC50>  (656) 
4.51

>  <ChEMBL_ID>  (656) 
CHEMBL1702620

>  <document_journal>  (656) 
None

>  <bao_endpoint>  (656) 
BAO_0000190

>  <potential_duplicate>  (656) 
False

>  <uo_units>  (656) 
UO_0000065

>  <canonical_smiles>  (656) 
COc1ccc(N2CCN(CCCNC(=O)CN3C(=O)c4cccn4c5c(C)ccnc35)CC2)c(OC)c1

>  <parent_molecule_chembl_id>  (656) 
CHEMBL1702620

>  <assay_type>  (656) 
F

>  <src_id>  (656) 
7

>  <ligand_efficiency>  (656) 
None

>  <standard_flag>  (656) 
True

>  <molecule_chembl_id>  (656) 
CHEMBL1702620

>  <target_organism>  (656) 
Homo sapiens

>  <standard_units>  (656) 
nM

>  <record_id>  (656) 
1386724

>  <document_chembl_id>  (656) 
CHEMBL1201862

>  <bao_format>  (656) 
BAO_0000019

>  <data_validity_description>  (656) 
None

>  <activity_id>  (656) 
5408123

>  <standard_type>  (656) 
IC50

>  <target_chembl_id>  (656) 
CHEMBL233

>  <data_validity_comment>  (656) 
None

>  <published_value>  (656) 
30.9

>  <document_year>  (656) 
None

>  <target_pref_name>  (656) 
Mu opioid receptor

>  <assay_chembl_id>  (656) 
CHEMBL1738030

>  <standard_relation>  (656) 
=

>  <assay_description>  (656) 
PUBCHEM_BIOASSAY: SAR Analysis of Antagonists of the MOR Receptor using an Image-Based Assay - Set 3. (Class of assay: confirmatory) [Related pubchem assays (depositor defined):AID1777, AID1785, AID1786, AID1966, AID2133, AID2136, AID2284, AID2285, AID2420]

>  <published_relation>  (656) 
=

>  <standard_value>  (656) 
30900

>  <qudt_units>  (656) 
http://www.openphacts.org/units/Nanomolar

>  <target_tax_id>  (656) 
9606

>  <bao_label>  (656) 
assay format

>  <published_units>  (656) 
uM

>  <pchembl_value>  (656) 
4.51

>  <published_type>  (656) 
IC50

>  <activity_comment>  (656) 
inactive

$$$$

     RDKit          

 22 25  0  0  0  0  0  0  0  0999 V2000
    0.0000    0.0000    0.0000 O   0  0  0  0  0  0  0  0  0  0  0  0
    0.0000    0.0000    0.0000 C   0  0  0  0  0  0  0  0  0  0  0  0
    0.0000    0.0000    0.0000 C   0  0  0  0  0  0  0  0  0  0  0  0
    0.0000    0.0000    0.0000 C   0  0  0  0  0  0  0  0  0  0  0  0
    0.0000    0.0000    0.0000 N   0  0  0  0  0  0  0  0  0  0  0  0
    0.0000    0.0000    0.0000 C   0  0  0  0  0  0  0  0  0  0  0  0
    0.0000    0.0000    0.0000 C   0  0  0  0  0  0  0  0  0  0  0  0
    0.0000    0.0000    0.0000 C   0  0  0  0  0  0  0  0  0  0  0  0
    0.0000    0.0000    0.0000 C   0  0  0  0  0  0  0  0  0  0  0  0
    0.0000    0.0000    0.0000 C   0  0  0  0  0  0  0  0  0  0  0  0
    0.0000    0.0000    0.0000 C   0  0  0  0  0  0  0  0  0  0  0  0
    0.0000    0.0000    0.0000 C   0  0  0  0  0  0  0  0  0  0  0  0
    0.0000    0.0000    0.0000 C   0  0  0  0  0  0  0  0  0  0  0  0
    0.0000    0.0000    0.0000 N   0  0  0  0  0  0  0  0  0  0  0  0
    0.0000    0.0000    0.0000 C   0  0  0  0  0  0  0  0  0  0  0  0
    0.0000    0.0000    0.0000 S   0  0  0  0  0  0  0  0  0  0  0  0
    0.0000    0.0000    0.0000 C   0  0  0  0  0  0  0  0  0  0  0  0
    0.0000    0.0000    0.0000 C   0  0  0  0  0  0  0  0  0  0  0  0
    0.0000    0.0000    0.0000 C   0  0  0  0  0  0  0  0  0  0  0  0
    0.0000    0.0000    0.0000 C   0  0  0  0  0  0  0  0  0  0  0  0
    0.0000    0.0000    0.0000 C   0  0  0  0  0  0  0  0  0  0  0  0
    0.0000    0.0000    0.0000 C   0  0  0  0  0  0  0  0  0  0  0  0
  1  2  1  0
  2  3  2  0
  3  4  1  0
  4  5  2  3
  5  6  1  0
  6  7  2  0
  7  8  1  0
  8  9  2  0
  9 10  1  0
 10 11  2  0
 11 12  1  0
 12 13  2  0
 13 14  1  0
 14 15  2  0
  3 16  1  0
 16 17  1  0
 17 18  2  0
 18 19  1  0
 19 20  2  0
 20 21  1  0
 21 22  2  0
 22  2  1  0
 15  6  1  0
 15 10  1  0
 22 17  1  0
M  END
>  <pIC50>  (657) 
6.05

>  <ChEMBL_ID>  (657) 
CHEMBL1369123

>  <document_journal>  (657) 
None

>  <bao_endpoint>  (657) 
BAO_0000190

>  <potential_duplicate>  (657) 
False

>  <uo_units>  (657) 
UO_0000065

>  <canonical_smiles>  (657) 
Oc1c(C=Nc2cccc3cccnc23)sc4ccccc14

>  <parent_molecule_chembl_id>  (657) 
CHEMBL1369123

>  <assay_type>  (657) 
F

>  <src_id>  (657) 
7

>  <ligand_efficiency>  (657) 
None

>  <standard_flag>  (657) 
True

>  <molecule_chembl_id>  (657) 
CHEMBL1369123

>  <target_organism>  (657) 
Homo sapiens

>  <standard_units>  (657) 
nM

>  <record_id>  (657) 
1384659

>  <document_chembl_id>  (657) 
CHEMBL1201862

>  <bao_format>  (657) 
BAO_0000019

>  <data_validity_description>  (657) 
None

>  <activity_id>  (657) 
5855490

>  <standard_type>  (657) 
IC50

>  <target_chembl_id>  (657) 
CHEMBL233

>  <data_validity_comment>  (657) 
None

>  <published_value>  (657) 
0.897

>  <document_year>  (657) 
None

>  <target_pref_name>  (657) 
Mu opioid receptor

>  <assay_chembl_id>  (657) 
CHEMBL1738425

>  <standard_relation>  (657) 
=

>  <assay_description>  (657) 
PUBCHEM_BIOASSAY: SAR Analysis of Antagonists of the MOR Receptor using an Image-Based Assay. (Class of assay: confirmatory) [Related pubchem assays (depositor defined):AID1777, AID1785, AID1786, AID1966, AID2133, AID2136, AID2284, AID2285, AID2478, AID488842]

>  <published_relation>  (657) 
=

>  <standard_value>  (657) 
897

>  <qudt_units>  (657) 
http://www.openphacts.org/units/Nanomolar

>  <target_tax_id>  (657) 
9606

>  <bao_label>  (657) 
assay format

>  <published_units>  (657) 
uM

>  <pchembl_value>  (657) 
6.05

>  <published_type>  (657) 
IC50

>  <activity_comment>  (657) 
Active

$$$$

     RDKit          

 34 36  0  0  0  0  0  0  0  0999 V2000
    0.0000    0.0000    0.0000 C   0  0  0  0  0  0  0  0  0  0  0  0
    0.0000    0.0000    0.0000 N   0  0  0  0  0  0  0  0  0  0  0  0
    0.0000    0.0000    0.0000 C   0  0  0  0  0  0  0  0  0  0  0  0
    0.0000    0.0000    0.0000 C   0  0  0  0  0  0  0  0  0  0  0  0
    0.0000    0.0000    0.0000 C   0  0  0  0  0  0  0  0  0  0  0  0
    0.0000    0.0000    0.0000 N   0  0  0  0  0  0  0  0  0  0  0  0
    0.0000    0.0000    0.0000 C   0  0  0  0  0  0  0  0  0  0  0  0
    0.0000    0.0000    0.0000 O   0  0  0  0  0  0  0  0  0  0  0  0
    0.0000    0.0000    0.0000 C   0  0  0  0  0  0  0  0  0  0  0  0
    0.0000    0.0000    0.0000 C   0  0  0  0  0  0  0  0  0  0  0  0
    0.0000    0.0000    0.0000 C   0  0  0  0  0  0  0  0  0  0  0  0
    0.0000    0.0000    0.0000 C   0  0  0  0  0  0  0  0  0  0  0  0
    0.0000    0.0000    0.0000 C   0  0  0  0  0  0  0  0  0  0  0  0
    0.0000    0.0000    0.0000 N   0  0  0  0  0  0  0  0  0  0  0  0
    0.0000    0.0000    0.0000 S   0  0  0  0  0  0  0  0  0  0  0  0
    0.0000    0.0000    0.0000 O   0  0  0  0  0  0  0  0  0  0  0  0
    0.0000    0.0000    0.0000 O   0  0  0  0  0  0  0  0  0  0  0  0
    0.0000    0.0000    0.0000 C   0  0  0  0  0  0  0  0  0  0  0  0
    0.0000    0.0000    0.0000 C   0  0  0  0  0  0  0  0  0  0  0  0
    0.0000    0.0000    0.0000 C   0  0  0  0  0  0  0  0  0  0  0  0
    0.0000    0.0000    0.0000 C   0  0  0  0  0  0  0  0  0  0  0  0
    0.0000    0.0000    0.0000 C   0  0  0  0  0  0  0  0  0  0  0  0
    0.0000    0.0000    0.0000 C   0  0  0  0  0  0  0  0  0  0  0  0
    0.0000    0.0000    0.0000 C   0  0  0  0  0  0  0  0  0  0  0  0
    0.0000    0.0000    0.0000 O   0  0  0  0  0  0  0  0  0  0  0  0
    0.0000    0.0000    0.0000 C   0  0  0  0  0  0  0  0  0  0  0  0
    0.0000    0.0000    0.0000 C   0  0  0  0  0  0  0  0  0  0  0  0
    0.0000    0.0000    0.0000 C   0  0  0  0  0  0  0  0  0  0  0  0
    0.0000    0.0000    0.0000 C   0  0  0  0  0  0  0  0  0  0  0  0
    0.0000    0.0000    0.0000 C   0  0  0  0  0  0  0  0  0  0  0  0
    0.0000    0.0000    0.0000 C   0  0  0  0  0  0  0  0  0  0  0  0
    0.0000    0.0000    0.0000 C   0  0  0  0  0  0  0  0  0  0  0  0
    0.0000    0.0000    0.0000 C   0  0  0  0  0  0  0  0  0  0  0  0
    0.0000    0.0000    0.0000 C   0  0  0  0  0  0  0  0  0  0  0  0
  1  2  1  0
  2  3  1  0
  2  4  1  0
  4  5  1  0
  5  6  1  0
  6  7  1  0
  7  8  2  0
  7  9  1  0
  9 10  2  0
 10 11  1  0
 11 12  2  0
 12 13  1  0
 13 14  1  0
 14 15  1  0
 15 16  2  0
 15 17  2  0
 15 18  1  0
 18 19  2  0
 19 20  1  0
 20 21  2  0
 21 22  1  0
 22 23  2  0
 21 24  1  0
 24 25  2  0
 24 26  1  0
 12 27  1  0
 27 28  2  0
  4 29  1  0
 29 30  2  0
 30 31  1  0
 31 32  2  0
 32 33  1  0
 33 34  2  0
 28  9  1  0
 23 18  1  0
 34 29  1  0
M  END
>  <pIC50>  (658) 
5.72

>  <ChEMBL_ID>  (658) 
CHEMBL1511139

>  <document_journal>  (658) 
None

>  <bao_endpoint>  (658) 
BAO_0000190

>  <potential_duplicate>  (658) 
False

>  <uo_units>  (658) 
UO_0000065

>  <canonical_smiles>  (658) 
CN(C)C(CNC(=O)c1ccc(CNS(=O)(=O)c2ccc(cc2)C(=O)C)cc1)c3ccccc3

>  <parent_molecule_chembl_id>  (658) 
CHEMBL1511139

>  <assay_type>  (658) 
F

>  <src_id>  (658) 
7

>  <ligand_efficiency>  (658) 
None

>  <standard_flag>  (658) 
True

>  <molecule_chembl_id>  (658) 
CHEMBL1511139

>  <target_organism>  (658) 
Homo sapiens

>  <standard_units>  (658) 
nM

>  <record_id>  (658) 
1384636

>  <document_chembl_id>  (658) 
CHEMBL1201862

>  <bao_format>  (658) 
BAO_0000019

>  <data_validity_description>  (658) 
None

>  <activity_id>  (658) 
5855514

>  <standard_type>  (658) 
IC50

>  <target_chembl_id>  (658) 
CHEMBL233

>  <data_validity_comment>  (658) 
None

>  <published_value>  (658) 
1.92

>  <document_year>  (658) 
None

>  <target_pref_name>  (658) 
Mu opioid receptor

>  <assay_chembl_id>  (658) 
CHEMBL1738425

>  <standard_relation>  (658) 
=

>  <assay_description>  (658) 
PUBCHEM_BIOASSAY: SAR Analysis of Antagonists of the MOR Receptor using an Image-Based Assay. (Class of assay: confirmatory) [Related pubchem assays (depositor defined):AID1777, AID1785, AID1786, AID1966, AID2133, AID2136, AID2284, AID2285, AID2478, AID488842]

>  <published_relation>  (658) 
=

>  <standard_value>  (658) 
1920

>  <qudt_units>  (658) 
http://www.openphacts.org/units/Nanomolar

>  <target_tax_id>  (658) 
9606

>  <bao_label>  (658) 
assay format

>  <published_units>  (658) 
uM

>  <pchembl_value>  (658) 
5.72

>  <published_type>  (658) 
IC50

>  <activity_comment>  (658) 
Active

$$$$

     RDKit          

 28 29  0  0  0  0  0  0  0  0999 V2000
    0.0000    0.0000    0.0000 Cl  0  0  0  0  0  0  0  0  0  0  0  0
    0.0000    0.0000    0.0000 C   0  0  0  0  0  0  0  0  0  0  0  0
    0.0000    0.0000    0.0000 C   0  0  0  0  0  0  0  0  0  0  0  0
    0.0000    0.0000    0.0000 C   0  0  0  0  0  0  0  0  0  0  0  0
    0.0000    0.0000    0.0000 C   0  0  0  0  0  0  0  0  0  0  0  0
    0.0000    0.0000    0.0000 C   0  0  0  0  0  0  0  0  0  0  0  0
    0.0000    0.0000    0.0000 Cl  0  0  0  0  0  0  0  0  0  0  0  0
    0.0000    0.0000    0.0000 C   0  0  0  0  0  0  0  0  0  0  0  0
    0.0000    0.0000    0.0000 N   0  0  0  0  0  0  0  0  0  0  0  0
    0.0000    0.0000    0.0000 C   0  0  0  0  0  0  0  0  0  0  0  0
    0.0000    0.0000    0.0000 S   0  0  0  0  0  0  0  0  0  0  0  0
    0.0000    0.0000    0.0000 N   0  0  0  0  0  0  0  0  0  0  0  0
    0.0000    0.0000    0.0000 C   0  0  0  0  0  0  0  0  0  0  0  0
    0.0000    0.0000    0.0000 N   0  0  0  0  0  0  0  0  0  0  0  0
    0.0000    0.0000    0.0000 C   0  0  0  0  0  0  0  0  0  0  0  0
    0.0000    0.0000    0.0000 O   0  0  0  0  0  0  0  0  0  0  0  0
    0.0000    0.0000    0.0000 O   0  0  0  0  0  0  0  0  0  0  0  0
    0.0000    0.0000    0.0000 C   0  0  0  0  0  0  0  0  0  0  0  0
    0.0000    0.0000    0.0000 C   0  0  0  0  0  0  0  0  0  0  0  0
    0.0000    0.0000    0.0000 C   0  0  0  0  0  0  0  0  0  0  0  0
    0.0000    0.0000    0.0000 C   0  0  0  0  0  0  0  0  0  0  0  0
    0.0000    0.0000    0.0000 C   0  0  0  0  0  0  0  0  0  0  0  0
    0.0000    0.0000    0.0000 C   0  0  0  0  0  0  0  0  0  0  0  0
    0.0000    0.0000    0.0000 C   0  0  0  0  0  0  0  0  0  0  0  0
    0.0000    0.0000    0.0000 C   0  0  0  0  0  0  0  0  0  0  0  0
    0.0000    0.0000    0.0000 Cl  0  0  0  0  0  0  0  0  0  0  0  0
    0.0000    0.0000    0.0000 Cl  0  0  0  0  0  0  0  0  0  0  0  0
    0.0000    0.0000    0.0000 Cl  0  0  0  0  0  0  0  0  0  0  0  0
  1  2  1  0
  2  3  2  0
  3  4  1  0
  4  5  2  0
  5  6  1  0
  6  7  1  0
  6  8  2  0
  8  9  1  0
  9 10  1  0
 10 11  2  0
 10 12  1  0
 12 13  1  0
 13 14  1  0
 14 15  1  0
 15 16  2  0
 15 17  1  0
 17 18  1  0
 18 19  1  0
 19 20  2  0
 20 21  1  0
 21 22  2  0
 22 23  1  0
 23 24  2  0
 13 25  1  0
 25 26  1  0
 25 27  1  0
 25 28  1  0
  8  2  1  0
 24 19  1  0
M  END
>  <pIC50>  (659) 
5.07

>  <ChEMBL_ID>  (659) 
CHEMBL1461661

>  <document_journal>  (659) 
None

>  <bao_endpoint>  (659) 
BAO_0000190

>  <potential_duplicate>  (659) 
False

>  <uo_units>  (659) 
UO_0000065

>  <canonical_smiles>  (659) 
Clc1cccc(Cl)c1NC(=S)NC(NC(=O)OCc2ccccc2)C(Cl)(Cl)Cl

>  <parent_molecule_chembl_id>  (659) 
CHEMBL1461661

>  <assay_type>  (659) 
F

>  <src_id>  (659) 
7

>  <ligand_efficiency>  (659) 
None

>  <standard_flag>  (659) 
True

>  <molecule_chembl_id>  (659) 
CHEMBL1461661

>  <target_organism>  (659) 
Homo sapiens

>  <standard_units>  (659) 
nM

>  <record_id>  (659) 
1384631

>  <document_chembl_id>  (659) 
CHEMBL1201862

>  <bao_format>  (659) 
BAO_0000019

>  <data_validity_description>  (659) 
None

>  <activity_id>  (659) 
5855524

>  <standard_type>  (659) 
IC50

>  <target_chembl_id>  (659) 
CHEMBL233

>  <data_validity_comment>  (659) 
None

>  <published_value>  (659) 
8.43

>  <document_year>  (659) 
None

>  <target_pref_name>  (659) 
Mu opioid receptor

>  <assay_chembl_id>  (659) 
CHEMBL1738425

>  <standard_relation>  (659) 
=

>  <assay_description>  (659) 
PUBCHEM_BIOASSAY: SAR Analysis of Antagonists of the MOR Receptor using an Image-Based Assay. (Class of assay: confirmatory) [Related pubchem assays (depositor defined):AID1777, AID1785, AID1786, AID1966, AID2133, AID2136, AID2284, AID2285, AID2478, AID488842]

>  <published_relation>  (659) 
=

>  <standard_value>  (659) 
8430

>  <qudt_units>  (659) 
http://www.openphacts.org/units/Nanomolar

>  <target_tax_id>  (659) 
9606

>  <bao_label>  (659) 
assay format

>  <published_units>  (659) 
uM

>  <pchembl_value>  (659) 
5.07

>  <published_type>  (659) 
IC50

>  <activity_comment>  (659) 
Active

$$$$

     RDKit          

 65 72  0  0  0  0  0  0  0  0999 V2000
    0.0000    0.0000    0.0000 C   0  0  0  0  0  0  0  0  0  0  0  0
    0.0000    0.0000    0.0000 C   0  0  0  0  0  0  0  0  0  0  0  0
    0.0000    0.0000    0.0000 C   0  0  0  0  0  0  0  0  0  0  0  0
    0.0000    0.0000    0.0000 C   0  0  0  0  0  0  0  0  0  0  0  0
    0.0000    0.0000    0.0000 N   0  0  0  0  0  0  0  0  0  0  0  0
    0.0000    0.0000    0.0000 C   0  0  0  0  0  0  0  0  0  0  0  0
    0.0000    0.0000    0.0000 C   0  0  0  0  0  0  0  0  0  0  0  0
    0.0000    0.0000    0.0000 C   0  0  0  0  0  0  0  0  0  0  0  0
    0.0000    0.0000    0.0000 N   0  0  0  0  0  0  0  0  0  0  0  0
    0.0000    0.0000    0.0000 C   0  0  0  0  0  0  0  0  0  0  0  0
    0.0000    0.0000    0.0000 O   0  0  0  0  0  0  0  0  0  0  0  0
    0.0000    0.0000    0.0000 C   0  0  0  0  0  0  0  0  0  0  0  0
    0.0000    0.0000    0.0000 C   0  0  0  0  0  0  0  0  0  0  0  0
    0.0000    0.0000    0.0000 C   0  0  0  0  0  0  0  0  0  0  0  0
    0.0000    0.0000    0.0000 C   0  0  0  0  0  0  0  0  0  0  0  0
    0.0000    0.0000    0.0000 C   0  0  0  0  0  0  0  0  0  0  0  0
    0.0000    0.0000    0.0000 C   0  0  0  0  0  0  0  0  0  0  0  0
    0.0000    0.0000    0.0000 C   0  0  0  0  0  0  0  0  0  0  0  0
    0.0000    0.0000    0.0000 O   0  0  0  0  0  0  0  0  0  0  0  0
    0.0000    0.0000    0.0000 C   0  0  0  0  0  0  0  0  0  0  0  0
    0.0000    0.0000    0.0000 C   0  0  0  0  0  0  0  0  0  0  0  0
    0.0000    0.0000    0.0000 C   0  0  0  0  0  0  0  0  0  0  0  0
    0.0000    0.0000    0.0000 C   0  0  0  0  0  0  0  0  0  0  0  0
    0.0000    0.0000    0.0000 C   0  0  0  0  0  0  0  0  0  0  0  0
    0.0000    0.0000    0.0000 N   0  0  0  0  0  0  0  0  0  0  0  0
    0.0000    0.0000    0.0000 C   0  0  0  0  0  0  0  0  0  0  0  0
    0.0000    0.0000    0.0000 C   0  0  0  0  0  0  0  0  0  0  0  0
    0.0000    0.0000    0.0000 C   0  0  0  0  0  0  0  0  0  0  0  0
    0.0000    0.0000    0.0000 N   0  0  0  0  0  0  0  0  0  0  0  0
    0.0000    0.0000    0.0000 C   0  0  0  0  0  0  0  0  0  0  0  0
    0.0000    0.0000    0.0000 C   0  0  0  0  0  0  0  0  0  0  0  0
    0.0000    0.0000    0.0000 C   0  0  0  0  0  0  0  0  0  0  0  0
    0.0000    0.0000    0.0000 C   0  0  0  0  0  0  0  0  0  0  0  0
    0.0000    0.0000    0.0000 C   0  0  0  0  0  0  0  0  0  0  0  0
    0.0000    0.0000    0.0000 O   0  0  0  0  0  0  0  0  0  0  0  0
    0.0000    0.0000    0.0000 C   0  0  0  0  0  0  0  0  0  0  0  0
    0.0000    0.0000    0.0000 C   0  0  0  0  0  0  0  0  0  0  0  0
    0.0000    0.0000    0.0000 C   0  0  0  0  0  0  0  0  0  0  0  0
    0.0000    0.0000    0.0000 C   0  0  0  0  0  0  0  0  0  0  0  0
    0.0000    0.0000    0.0000 C   0  0  0  0  0  0  0  0  0  0  0  0
    0.0000    0.0000    0.0000 C   0  0  0  0  0  0  0  0  0  0  0  0
    0.0000    0.0000    0.0000 C   0  0  0  0  0  0  0  0  0  0  0  0
    0.0000    0.0000    0.0000 C   0  0  0  0  0  0  0  0  0  0  0  0
    0.0000    0.0000    0.0000 O   0  0  0  0  0  0  0  0  0  0  0  0
    0.0000    0.0000    0.0000 N   0  0  0  0  0  0  0  0  0  0  0  0
    0.0000    0.0000    0.0000 C   0  0  0  0  0  0  0  0  0  0  0  0
    0.0000    0.0000    0.0000 C   0  0  0  0  0  0  0  0  0  0  0  0
    0.0000    0.0000    0.0000 C   0  0  0  0  0  0  0  0  0  0  0  0
    0.0000    0.0000    0.0000 C   0  0  0  0  0  0  0  0  0  0  0  0
    0.0000    0.0000    0.0000 N   0  0  0  0  0  0  0  0  0  0  0  0
    0.0000    0.0000    0.0000 C   0  0  0  0  0  0  0  0  0  0  0  0
    0.0000    0.0000    0.0000 C   0  0  0  0  0  0  0  0  0  0  0  0
    0.0000    0.0000    0.0000 C   0  0  0  0  0  0  0  0  0  0  0  0
    0.0000    0.0000    0.0000 C   0  0  0  0  0  0  0  0  0  0  0  0
    0.0000    0.0000    0.0000 N   0  0  0  0  0  0  0  0  0  0  0  0
    0.0000    0.0000    0.0000 C   0  0  0  0  0  0  0  0  0  0  0  0
    0.0000    0.0000    0.0000 C   0  0  0  0  0  0  0  0  0  0  0  0
    0.0000    0.0000    0.0000 C   0  0  0  0  0  0  0  0  0  0  0  0
    0.0000    0.0000    0.0000 C   0  0  0  0  0  0  0  0  0  0  0  0
    0.0000    0.0000    0.0000 C   0  0  0  0  0  0  0  0  0  0  0  0
    0.0000    0.0000    0.0000 C   0  0  0  0  0  0  0  0  0  0  0  0
    0.0000    0.0000    0.0000 C   0  0  0  0  0  0  0  0  0  0  0  0
    0.0000    0.0000    0.0000 C   0  0  0  0  0  0  0  0  0  0  0  0
    0.0000    0.0000    0.0000 C   0  0  0  0  0  0  0  0  0  0  0  0
    0.0000    0.0000    0.0000 N   0  0  0  0  0  0  0  0  0  0  0  0
  1  2  1  0
  2  3  2  0
  3  4  1  0
  4  5  1  0
  4  6  2  0
  6  7  1  0
  7  8  2  0
  8  9  1  0
  9 10  1  0
 10 11  2  0
 10 12  1  0
 12 13  2  0
 13 14  1  0
 14 15  2  0
 15 16  1  0
 16 17  2  0
 17 18  1  0
 18 19  1  0
 19 20  1  0
 20 21  2  0
 21 22  1  0
 22 23  2  0
 23 24  1  0
 24 25  1  0
 25 26  1  0
 26 27  1  0
 27 28  1  0
 28 29  1  0
 29 30  1  0
 30 31  1  0
 31 32  2  0
 32 33  1  0
 33 34  2  0
 34 35  1  0
 35 36  1  0
 36 37  1  0
 37 38  2  0
 38 39  1  0
 39 40  2  0
 40 41  1  0
 41 42  2  0
 42 43  1  0
 43 44  2  0
 43 45  1  0
 45 46  1  0
 46 47  2  0
 47 48  1  0
 48 49  2  0
 49 50  1  0
 50 51  2  0
 51 52  1  0
 51 53  1  0
 53 54  2  0
 54 55  1  0
 54 56  1  0
 56 57  2  0
 34 58  1  0
 58 59  2  0
 23 60  1  0
 60 61  2  0
  8 62  1  0
 62 63  2  0
 63 64  1  0
 64 65  2  0
 65  2  1  0
 64  6  1  0
 17 12  1  0
 61 20  1  0
 59 31  1  0
 42 37  1  0
 57 46  1  0
 56 49  1  0
M  END
>  <pIC50>  (660) 
6.33

>  <ChEMBL_ID>  (660) 
CHEMBL1762381

>  <document_journal>  (660) 
Eur. J. Med. Chem.

>  <bao_endpoint>  (660) 
BAO_0000190

>  <potential_duplicate>  (660) 
False

>  <uo_units>  (660) 
UO_0000065

>  <canonical_smiles>  (660) 
Cc1cc(N)c2cc(NC(=O)c3ccccc3COc4ccc(CNCCCNCc5ccc(OCc6ccccc6C(=O)Nc7ccc8nc(C)cc(N)c8c7)cc5)cc4)ccc2n1

>  <parent_molecule_chembl_id>  (660) 
CHEMBL1762381

>  <assay_type>  (660) 
B

>  <src_id>  (660) 
1

>  <ligand_efficiency>  (660) 
{u'le': u'0.13', u'bei': u'7.32', u'sei': u'3.55', u'lle': u'-0.43'}

>  <standard_flag>  (660) 
True

>  <molecule_chembl_id>  (660) 
CHEMBL1762381

>  <target_organism>  (660) 
Homo sapiens

>  <standard_units>  (660) 
nM

>  <record_id>  (660) 
1414852

>  <document_chembl_id>  (660) 
CHEMBL1759965

>  <bao_format>  (660) 
BAO_0000219

>  <data_validity_description>  (660) 
None

>  <activity_id>  (660) 
6152918

>  <standard_type>  (660) 
IC50

>  <target_chembl_id>  (660) 
CHEMBL233

>  <data_validity_comment>  (660) 
None

>  <published_value>  (660) 
468

>  <document_year>  (660) 
2011

>  <target_pref_name>  (660) 
Mu opioid receptor

>  <assay_chembl_id>  (660) 
CHEMBL1764074

>  <standard_relation>  (660) 
=

>  <assay_description>  (660) 
Displacement of [3H]-naltrindole from human mu opioid receptor expressed in CHO cells after 2 hrs by scintillation counting

>  <published_relation>  (660) 
=

>  <standard_value>  (660) 
468

>  <qudt_units>  (660) 
http://www.openphacts.org/units/Nanomolar

>  <target_tax_id>  (660) 
9606

>  <bao_label>  (660) 
cell-based format

>  <published_units>  (660) 
nM

>  <pchembl_value>  (660) 
6.33

>  <published_type>  (660) 
IC50

>  <activity_comment>  (660) 
None

$$$$

     RDKit          

 66 73  0  0  0  0  0  0  0  0999 V2000
    0.0000    0.0000    0.0000 C   0  0  0  0  0  0  0  0  0  0  0  0
    0.0000    0.0000    0.0000 C   0  0  0  0  0  0  0  0  0  0  0  0
    0.0000    0.0000    0.0000 C   0  0  0  0  0  0  0  0  0  0  0  0
    0.0000    0.0000    0.0000 C   0  0  0  0  0  0  0  0  0  0  0  0
    0.0000    0.0000    0.0000 N   0  0  0  0  0  0  0  0  0  0  0  0
    0.0000    0.0000    0.0000 C   0  0  0  0  0  0  0  0  0  0  0  0
    0.0000    0.0000    0.0000 C   0  0  0  0  0  0  0  0  0  0  0  0
    0.0000    0.0000    0.0000 C   0  0  0  0  0  0  0  0  0  0  0  0
    0.0000    0.0000    0.0000 N   0  0  0  0  0  0  0  0  0  0  0  0
    0.0000    0.0000    0.0000 C   0  0  0  0  0  0  0  0  0  0  0  0
    0.0000    0.0000    0.0000 O   0  0  0  0  0  0  0  0  0  0  0  0
    0.0000    0.0000    0.0000 C   0  0  0  0  0  0  0  0  0  0  0  0
    0.0000    0.0000    0.0000 C   0  0  0  0  0  0  0  0  0  0  0  0
    0.0000    0.0000    0.0000 C   0  0  0  0  0  0  0  0  0  0  0  0
    0.0000    0.0000    0.0000 C   0  0  0  0  0  0  0  0  0  0  0  0
    0.0000    0.0000    0.0000 C   0  0  0  0  0  0  0  0  0  0  0  0
    0.0000    0.0000    0.0000 C   0  0  0  0  0  0  0  0  0  0  0  0
    0.0000    0.0000    0.0000 C   0  0  0  0  0  0  0  0  0  0  0  0
    0.0000    0.0000    0.0000 O   0  0  0  0  0  0  0  0  0  0  0  0
    0.0000    0.0000    0.0000 C   0  0  0  0  0  0  0  0  0  0  0  0
    0.0000    0.0000    0.0000 C   0  0  0  0  0  0  0  0  0  0  0  0
    0.0000    0.0000    0.0000 C   0  0  0  0  0  0  0  0  0  0  0  0
    0.0000    0.0000    0.0000 C   0  0  0  0  0  0  0  0  0  0  0  0
    0.0000    0.0000    0.0000 C   0  0  0  0  0  0  0  0  0  0  0  0
    0.0000    0.0000    0.0000 N   0  0  0  0  0  0  0  0  0  0  0  0
    0.0000    0.0000    0.0000 C   0  0  0  0  0  0  0  0  0  0  0  0
    0.0000    0.0000    0.0000 C   0  0  0  0  0  0  0  0  0  0  0  0
    0.0000    0.0000    0.0000 C   0  0  0  0  0  0  0  0  0  0  0  0
    0.0000    0.0000    0.0000 C   0  0  0  0  0  0  0  0  0  0  0  0
    0.0000    0.0000    0.0000 N   0  0  0  0  0  0  0  0  0  0  0  0
    0.0000    0.0000    0.0000 C   0  0  0  0  0  0  0  0  0  0  0  0
    0.0000    0.0000    0.0000 C   0  0  0  0  0  0  0  0  0  0  0  0
    0.0000    0.0000    0.0000 C   0  0  0  0  0  0  0  0  0  0  0  0
    0.0000    0.0000    0.0000 C   0  0  0  0  0  0  0  0  0  0  0  0
    0.0000    0.0000    0.0000 C   0  0  0  0  0  0  0  0  0  0  0  0
    0.0000    0.0000    0.0000 O   0  0  0  0  0  0  0  0  0  0  0  0
    0.0000    0.0000    0.0000 C   0  0  0  0  0  0  0  0  0  0  0  0
    0.0000    0.0000    0.0000 C   0  0  0  0  0  0  0  0  0  0  0  0
    0.0000    0.0000    0.0000 C   0  0  0  0  0  0  0  0  0  0  0  0
    0.0000    0.0000    0.0000 C   0  0  0  0  0  0  0  0  0  0  0  0
    0.0000    0.0000    0.0000 C   0  0  0  0  0  0  0  0  0  0  0  0
    0.0000    0.0000    0.0000 C   0  0  0  0  0  0  0  0  0  0  0  0
    0.0000    0.0000    0.0000 C   0  0  0  0  0  0  0  0  0  0  0  0
    0.0000    0.0000    0.0000 C   0  0  0  0  0  0  0  0  0  0  0  0
    0.0000    0.0000    0.0000 O   0  0  0  0  0  0  0  0  0  0  0  0
    0.0000    0.0000    0.0000 N   0  0  0  0  0  0  0  0  0  0  0  0
    0.0000    0.0000    0.0000 C   0  0  0  0  0  0  0  0  0  0  0  0
    0.0000    0.0000    0.0000 C   0  0  0  0  0  0  0  0  0  0  0  0
    0.0000    0.0000    0.0000 C   0  0  0  0  0  0  0  0  0  0  0  0
    0.0000    0.0000    0.0000 C   0  0  0  0  0  0  0  0  0  0  0  0
    0.0000    0.0000    0.0000 N   0  0  0  0  0  0  0  0  0  0  0  0
    0.0000    0.0000    0.0000 C   0  0  0  0  0  0  0  0  0  0  0  0
    0.0000    0.0000    0.0000 C   0  0  0  0  0  0  0  0  0  0  0  0
    0.0000    0.0000    0.0000 C   0  0  0  0  0  0  0  0  0  0  0  0
    0.0000    0.0000    0.0000 C   0  0  0  0  0  0  0  0  0  0  0  0
    0.0000    0.0000    0.0000 N   0  0  0  0  0  0  0  0  0  0  0  0
    0.0000    0.0000    0.0000 C   0  0  0  0  0  0  0  0  0  0  0  0
    0.0000    0.0000    0.0000 C   0  0  0  0  0  0  0  0  0  0  0  0
    0.0000    0.0000    0.0000 C   0  0  0  0  0  0  0  0  0  0  0  0
    0.0000    0.0000    0.0000 C   0  0  0  0  0  0  0  0  0  0  0  0
    0.0000    0.0000    0.0000 C   0  0  0  0  0  0  0  0  0  0  0  0
    0.0000    0.0000    0.0000 C   0  0  0  0  0  0  0  0  0  0  0  0
    0.0000    0.0000    0.0000 C   0  0  0  0  0  0  0  0  0  0  0  0
    0.0000    0.0000    0.0000 C   0  0  0  0  0  0  0  0  0  0  0  0
    0.0000    0.0000    0.0000 C   0  0  0  0  0  0  0  0  0  0  0  0
    0.0000    0.0000    0.0000 N   0  0  0  0  0  0  0  0  0  0  0  0
  1  2  1  0
  2  3  2  0
  3  4  1  0
  4  5  1  0
  4  6  2  0
  6  7  1  0
  7  8  2  0
  8  9  1  0
  9 10  1  0
 10 11  2  0
 10 12  1  0
 12 13  2  0
 13 14  1  0
 14 15  2  0
 15 16  1  0
 16 17  2  0
 17 18  1  0
 18 19  1  0
 19 20  1  0
 20 21  2  0
 21 22  1  0
 22 23  2  0
 23 24  1  0
 24 25  1  0
 25 26  1  0
 26 27  1  0
 27 28  1  0
 28 29  1  0
 29 30  1  0
 30 31  1  0
 31 32  1  0
 32 33  2  0
 33 34  1  0
 34 35  2  0
 35 36  1  0
 36 37  1  0
 37 38  1  0
 38 39  2  0
 39 40  1  0
 40 41  2  0
 41 42  1  0
 42 43  2  0
 43 44  1  0
 44 45  2  0
 44 46  1  0
 46 47  1  0
 47 48  2  0
 48 49  1  0
 49 50  2  0
 50 51  1  0
 51 52  2  0
 52 53  1  0
 52 54  1  0
 54 55  2  0
 55 56  1  0
 55 57  1  0
 57 58  2  0
 35 59  1  0
 59 60  2  0
 23 61  1  0
 61 62  2  0
  8 63  1  0
 63 64  2  0
 64 65  1  0
 65 66  2  0
 66  2  1  0
 65  6  1  0
 17 12  1  0
 62 20  1  0
 60 32  1  0
 43 38  1  0
 58 47  1  0
 57 50  1  0
M  END
>  <pIC50>  (661) 
5.8

>  <ChEMBL_ID>  (661) 
CHEMBL1762382

>  <document_journal>  (661) 
Eur. J. Med. Chem.

>  <bao_endpoint>  (661) 
BAO_0000190

>  <potential_duplicate>  (661) 
False

>  <uo_units>  (661) 
UO_0000065

>  <canonical_smiles>  (661) 
Cc1cc(N)c2cc(NC(=O)c3ccccc3COc4ccc(CNCCCCNCc5ccc(OCc6ccccc6C(=O)Nc7ccc8nc(C)cc(N)c8c7)cc5)cc4)ccc2n1

>  <parent_molecule_chembl_id>  (661) 
CHEMBL1762382

>  <assay_type>  (661) 
B

>  <src_id>  (661) 
1

>  <ligand_efficiency>  (661) 
{u'le': u'0.12', u'bei': u'6.6', u'sei': u'3.25', u'lle': u'-1.54'}

>  <standard_flag>  (661) 
True

>  <molecule_chembl_id>  (661) 
CHEMBL1762382

>  <target_organism>  (661) 
Homo sapiens

>  <standard_units>  (661) 
nM

>  <record_id>  (661) 
1414853

>  <document_chembl_id>  (661) 
CHEMBL1759965

>  <bao_format>  (661) 
BAO_0000219

>  <data_validity_description>  (661) 
None

>  <activity_id>  (661) 
6152919

>  <standard_type>  (661) 
IC50

>  <target_chembl_id>  (661) 
CHEMBL233

>  <data_validity_comment>  (661) 
None

>  <published_value>  (661) 
1590

>  <document_year>  (661) 
2011

>  <target_pref_name>  (661) 
Mu opioid receptor

>  <assay_chembl_id>  (661) 
CHEMBL1764074

>  <standard_relation>  (661) 
=

>  <assay_description>  (661) 
Displacement of [3H]-naltrindole from human mu opioid receptor expressed in CHO cells after 2 hrs by scintillation counting

>  <published_relation>  (661) 
=

>  <standard_value>  (661) 
1590

>  <qudt_units>  (661) 
http://www.openphacts.org/units/Nanomolar

>  <target_tax_id>  (661) 
9606

>  <bao_label>  (661) 
cell-based format

>  <published_units>  (661) 
nM

>  <pchembl_value>  (661) 
5.8

>  <published_type>  (661) 
IC50

>  <activity_comment>  (661) 
None

$$$$

     RDKit          

 67 74  0  0  0  0  0  0  0  0999 V2000
    0.0000    0.0000    0.0000 C   0  0  0  0  0  0  0  0  0  0  0  0
    0.0000    0.0000    0.0000 C   0  0  0  0  0  0  0  0  0  0  0  0
    0.0000    0.0000    0.0000 C   0  0  0  0  0  0  0  0  0  0  0  0
    0.0000    0.0000    0.0000 C   0  0  0  0  0  0  0  0  0  0  0  0
    0.0000    0.0000    0.0000 N   0  0  0  0  0  0  0  0  0  0  0  0
    0.0000    0.0000    0.0000 C   0  0  0  0  0  0  0  0  0  0  0  0
    0.0000    0.0000    0.0000 C   0  0  0  0  0  0  0  0  0  0  0  0
    0.0000    0.0000    0.0000 C   0  0  0  0  0  0  0  0  0  0  0  0
    0.0000    0.0000    0.0000 N   0  0  0  0  0  0  0  0  0  0  0  0
    0.0000    0.0000    0.0000 C   0  0  0  0  0  0  0  0  0  0  0  0
    0.0000    0.0000    0.0000 O   0  0  0  0  0  0  0  0  0  0  0  0
    0.0000    0.0000    0.0000 C   0  0  0  0  0  0  0  0  0  0  0  0
    0.0000    0.0000    0.0000 C   0  0  0  0  0  0  0  0  0  0  0  0
    0.0000    0.0000    0.0000 C   0  0  0  0  0  0  0  0  0  0  0  0
    0.0000    0.0000    0.0000 C   0  0  0  0  0  0  0  0  0  0  0  0
    0.0000    0.0000    0.0000 C   0  0  0  0  0  0  0  0  0  0  0  0
    0.0000    0.0000    0.0000 C   0  0  0  0  0  0  0  0  0  0  0  0
    0.0000    0.0000    0.0000 C   0  0  0  0  0  0  0  0  0  0  0  0
    0.0000    0.0000    0.0000 O   0  0  0  0  0  0  0  0  0  0  0  0
    0.0000    0.0000    0.0000 C   0  0  0  0  0  0  0  0  0  0  0  0
    0.0000    0.0000    0.0000 C   0  0  0  0  0  0  0  0  0  0  0  0
    0.0000    0.0000    0.0000 C   0  0  0  0  0  0  0  0  0  0  0  0
    0.0000    0.0000    0.0000 C   0  0  0  0  0  0  0  0  0  0  0  0
    0.0000    0.0000    0.0000 C   0  0  0  0  0  0  0  0  0  0  0  0
    0.0000    0.0000    0.0000 N   0  0  0  0  0  0  0  0  0  0  0  0
    0.0000    0.0000    0.0000 C   0  0  0  0  0  0  0  0  0  0  0  0
    0.0000    0.0000    0.0000 C   0  0  0  0  0  0  0  0  0  0  0  0
    0.0000    0.0000    0.0000 C   0  0  0  0  0  0  0  0  0  0  0  0
    0.0000    0.0000    0.0000 C   0  0  0  0  0  0  0  0  0  0  0  0
    0.0000    0.0000    0.0000 C   0  0  0  0  0  0  0  0  0  0  0  0
    0.0000    0.0000    0.0000 N   0  0  0  0  0  0  0  0  0  0  0  0
    0.0000    0.0000    0.0000 C   0  0  0  0  0  0  0  0  0  0  0  0
    0.0000    0.0000    0.0000 C   0  0  0  0  0  0  0  0  0  0  0  0
    0.0000    0.0000    0.0000 C   0  0  0  0  0  0  0  0  0  0  0  0
    0.0000    0.0000    0.0000 C   0  0  0  0  0  0  0  0  0  0  0  0
    0.0000    0.0000    0.0000 C   0  0  0  0  0  0  0  0  0  0  0  0
    0.0000    0.0000    0.0000 O   0  0  0  0  0  0  0  0  0  0  0  0
    0.0000    0.0000    0.0000 C   0  0  0  0  0  0  0  0  0  0  0  0
    0.0000    0.0000    0.0000 C   0  0  0  0  0  0  0  0  0  0  0  0
    0.0000    0.0000    0.0000 C   0  0  0  0  0  0  0  0  0  0  0  0
    0.0000    0.0000    0.0000 C   0  0  0  0  0  0  0  0  0  0  0  0
    0.0000    0.0000    0.0000 C   0  0  0  0  0  0  0  0  0  0  0  0
    0.0000    0.0000    0.0000 C   0  0  0  0  0  0  0  0  0  0  0  0
    0.0000    0.0000    0.0000 C   0  0  0  0  0  0  0  0  0  0  0  0
    0.0000    0.0000    0.0000 C   0  0  0  0  0  0  0  0  0  0  0  0
    0.0000    0.0000    0.0000 O   0  0  0  0  0  0  0  0  0  0  0  0
    0.0000    0.0000    0.0000 N   0  0  0  0  0  0  0  0  0  0  0  0
    0.0000    0.0000    0.0000 C   0  0  0  0  0  0  0  0  0  0  0  0
    0.0000    0.0000    0.0000 C   0  0  0  0  0  0  0  0  0  0  0  0
    0.0000    0.0000    0.0000 C   0  0  0  0  0  0  0  0  0  0  0  0
    0.0000    0.0000    0.0000 C   0  0  0  0  0  0  0  0  0  0  0  0
    0.0000    0.0000    0.0000 N   0  0  0  0  0  0  0  0  0  0  0  0
    0.0000    0.0000    0.0000 C   0  0  0  0  0  0  0  0  0  0  0  0
    0.0000    0.0000    0.0000 C   0  0  0  0  0  0  0  0  0  0  0  0
    0.0000    0.0000    0.0000 C   0  0  0  0  0  0  0  0  0  0  0  0
    0.0000    0.0000    0.0000 C   0  0  0  0  0  0  0  0  0  0  0  0
    0.0000    0.0000    0.0000 N   0  0  0  0  0  0  0  0  0  0  0  0
    0.0000    0.0000    0.0000 C   0  0  0  0  0  0  0  0  0  0  0  0
    0.0000    0.0000    0.0000 C   0  0  0  0  0  0  0  0  0  0  0  0
    0.0000    0.0000    0.0000 C   0  0  0  0  0  0  0  0  0  0  0  0
    0.0000    0.0000    0.0000 C   0  0  0  0  0  0  0  0  0  0  0  0
    0.0000    0.0000    0.0000 C   0  0  0  0  0  0  0  0  0  0  0  0
    0.0000    0.0000    0.0000 C   0  0  0  0  0  0  0  0  0  0  0  0
    0.0000    0.0000    0.0000 C   0  0  0  0  0  0  0  0  0  0  0  0
    0.0000    0.0000    0.0000 C   0  0  0  0  0  0  0  0  0  0  0  0
    0.0000    0.0000    0.0000 C   0  0  0  0  0  0  0  0  0  0  0  0
    0.0000    0.0000    0.0000 N   0  0  0  0  0  0  0  0  0  0  0  0
  1  2  1  0
  2  3  2  0
  3  4  1  0
  4  5  1  0
  4  6  2  0
  6  7  1  0
  7  8  2  0
  8  9  1  0
  9 10  1  0
 10 11  2  0
 10 12  1  0
 12 13  2  0
 13 14  1  0
 14 15  2  0
 15 16  1  0
 16 17  2  0
 17 18  1  0
 18 19  1  0
 19 20  1  0
 20 21  2  0
 21 22  1  0
 22 23  2  0
 23 24  1  0
 24 25  1  0
 25 26  1  0
 26 27  1  0
 27 28  1  0
 28 29  1  0
 29 30  1  0
 30 31  1  0
 31 32  1  0
 32 33  1  0
 33 34  2  0
 34 35  1  0
 35 36  2  0
 36 37  1  0
 37 38  1  0
 38 39  1  0
 39 40  2  0
 40 41  1  0
 41 42  2  0
 42 43  1  0
 43 44  2  0
 44 45  1  0
 45 46  2  0
 45 47  1  0
 47 48  1  0
 48 49  2  0
 49 50  1  0
 50 51  2  0
 51 52  1  0
 52 53  2  0
 53 54  1  0
 53 55  1  0
 55 56  2  0
 56 57  1  0
 56 58  1  0
 58 59  2  0
 36 60  1  0
 60 61  2  0
 23 62  1  0
 62 63  2  0
  8 64  1  0
 64 65  2  0
 65 66  1  0
 66 67  2  0
 67  2  1  0
 66  6  1  0
 17 12  1  0
 63 20  1  0
 61 33  1  0
 44 39  1  0
 59 48  1  0
 58 51  1  0
M  END
>  <pIC50>  (662) 
5.6

>  <ChEMBL_ID>  (662) 
CHEMBL1762383

>  <document_journal>  (662) 
Eur. J. Med. Chem.

>  <bao_endpoint>  (662) 
BAO_0000190

>  <potential_duplicate>  (662) 
False

>  <uo_units>  (662) 
UO_0000065

>  <canonical_smiles>  (662) 
Cc1cc(N)c2cc(NC(=O)c3ccccc3COc4ccc(CNCCCCCNCc5ccc(OCc6ccccc6C(=O)Nc7ccc8nc(C)cc(N)c8c7)cc5)cc4)ccc2n1

>  <parent_molecule_chembl_id>  (662) 
CHEMBL1762383

>  <assay_type>  (662) 
B

>  <src_id>  (662) 
1

>  <ligand_efficiency>  (662) 
{u'le': u'0.11', u'bei': u'6.27', u'sei': u'3.14', u'lle': u'-2.2'}

>  <standard_flag>  (662) 
True

>  <molecule_chembl_id>  (662) 
CHEMBL1762383

>  <target_organism>  (662) 
Homo sapiens

>  <standard_units>  (662) 
nM

>  <record_id>  (662) 
1414854

>  <document_chembl_id>  (662) 
CHEMBL1759965

>  <bao_format>  (662) 
BAO_0000219

>  <data_validity_description>  (662) 
None

>  <activity_id>  (662) 
6152920

>  <standard_type>  (662) 
IC50

>  <target_chembl_id>  (662) 
CHEMBL233

>  <data_validity_comment>  (662) 
None

>  <published_value>  (662) 
2505

>  <document_year>  (662) 
2011

>  <target_pref_name>  (662) 
Mu opioid receptor

>  <assay_chembl_id>  (662) 
CHEMBL1764074

>  <standard_relation>  (662) 
=

>  <assay_description>  (662) 
Displacement of [3H]-naltrindole from human mu opioid receptor expressed in CHO cells after 2 hrs by scintillation counting

>  <published_relation>  (662) 
=

>  <standard_value>  (662) 
2505

>  <qudt_units>  (662) 
http://www.openphacts.org/units/Nanomolar

>  <target_tax_id>  (662) 
9606

>  <bao_label>  (662) 
cell-based format

>  <published_units>  (662) 
nM

>  <pchembl_value>  (662) 
5.6

>  <published_type>  (662) 
IC50

>  <activity_comment>  (662) 
None

$$$$

     RDKit          

 68 75  0  0  0  0  0  0  0  0999 V2000
    0.0000    0.0000    0.0000 C   0  0  0  0  0  0  0  0  0  0  0  0
    0.0000    0.0000    0.0000 C   0  0  0  0  0  0  0  0  0  0  0  0
    0.0000    0.0000    0.0000 C   0  0  0  0  0  0  0  0  0  0  0  0
    0.0000    0.0000    0.0000 C   0  0  0  0  0  0  0  0  0  0  0  0
    0.0000    0.0000    0.0000 N   0  0  0  0  0  0  0  0  0  0  0  0
    0.0000    0.0000    0.0000 C   0  0  0  0  0  0  0  0  0  0  0  0
    0.0000    0.0000    0.0000 C   0  0  0  0  0  0  0  0  0  0  0  0
    0.0000    0.0000    0.0000 C   0  0  0  0  0  0  0  0  0  0  0  0
    0.0000    0.0000    0.0000 N   0  0  0  0  0  0  0  0  0  0  0  0
    0.0000    0.0000    0.0000 C   0  0  0  0  0  0  0  0  0  0  0  0
    0.0000    0.0000    0.0000 O   0  0  0  0  0  0  0  0  0  0  0  0
    0.0000    0.0000    0.0000 C   0  0  0  0  0  0  0  0  0  0  0  0
    0.0000    0.0000    0.0000 C   0  0  0  0  0  0  0  0  0  0  0  0
    0.0000    0.0000    0.0000 C   0  0  0  0  0  0  0  0  0  0  0  0
    0.0000    0.0000    0.0000 C   0  0  0  0  0  0  0  0  0  0  0  0
    0.0000    0.0000    0.0000 C   0  0  0  0  0  0  0  0  0  0  0  0
    0.0000    0.0000    0.0000 C   0  0  0  0  0  0  0  0  0  0  0  0
    0.0000    0.0000    0.0000 C   0  0  0  0  0  0  0  0  0  0  0  0
    0.0000    0.0000    0.0000 O   0  0  0  0  0  0  0  0  0  0  0  0
    0.0000    0.0000    0.0000 C   0  0  0  0  0  0  0  0  0  0  0  0
    0.0000    0.0000    0.0000 C   0  0  0  0  0  0  0  0  0  0  0  0
    0.0000    0.0000    0.0000 C   0  0  0  0  0  0  0  0  0  0  0  0
    0.0000    0.0000    0.0000 C   0  0  0  0  0  0  0  0  0  0  0  0
    0.0000    0.0000    0.0000 C   0  0  0  0  0  0  0  0  0  0  0  0
    0.0000    0.0000    0.0000 N   0  0  0  0  0  0  0  0  0  0  0  0
    0.0000    0.0000    0.0000 C   0  0  0  0  0  0  0  0  0  0  0  0
    0.0000    0.0000    0.0000 C   0  0  0  0  0  0  0  0  0  0  0  0
    0.0000    0.0000    0.0000 C   0  0  0  0  0  0  0  0  0  0  0  0
    0.0000    0.0000    0.0000 C   0  0  0  0  0  0  0  0  0  0  0  0
    0.0000    0.0000    0.0000 C   0  0  0  0  0  0  0  0  0  0  0  0
    0.0000    0.0000    0.0000 C   0  0  0  0  0  0  0  0  0  0  0  0
    0.0000    0.0000    0.0000 N   0  0  0  0  0  0  0  0  0  0  0  0
    0.0000    0.0000    0.0000 C   0  0  0  0  0  0  0  0  0  0  0  0
    0.0000    0.0000    0.0000 C   0  0  0  0  0  0  0  0  0  0  0  0
    0.0000    0.0000    0.0000 C   0  0  0  0  0  0  0  0  0  0  0  0
    0.0000    0.0000    0.0000 C   0  0  0  0  0  0  0  0  0  0  0  0
    0.0000    0.0000    0.0000 C   0  0  0  0  0  0  0  0  0  0  0  0
    0.0000    0.0000    0.0000 O   0  0  0  0  0  0  0  0  0  0  0  0
    0.0000    0.0000    0.0000 C   0  0  0  0  0  0  0  0  0  0  0  0
    0.0000    0.0000    0.0000 C   0  0  0  0  0  0  0  0  0  0  0  0
    0.0000    0.0000    0.0000 C   0  0  0  0  0  0  0  0  0  0  0  0
    0.0000    0.0000    0.0000 C   0  0  0  0  0  0  0  0  0  0  0  0
    0.0000    0.0000    0.0000 C   0  0  0  0  0  0  0  0  0  0  0  0
    0.0000    0.0000    0.0000 C   0  0  0  0  0  0  0  0  0  0  0  0
    0.0000    0.0000    0.0000 C   0  0  0  0  0  0  0  0  0  0  0  0
    0.0000    0.0000    0.0000 C   0  0  0  0  0  0  0  0  0  0  0  0
    0.0000    0.0000    0.0000 O   0  0  0  0  0  0  0  0  0  0  0  0
    0.0000    0.0000    0.0000 N   0  0  0  0  0  0  0  0  0  0  0  0
    0.0000    0.0000    0.0000 C   0  0  0  0  0  0  0  0  0  0  0  0
    0.0000    0.0000    0.0000 C   0  0  0  0  0  0  0  0  0  0  0  0
    0.0000    0.0000    0.0000 C   0  0  0  0  0  0  0  0  0  0  0  0
    0.0000    0.0000    0.0000 C   0  0  0  0  0  0  0  0  0  0  0  0
    0.0000    0.0000    0.0000 N   0  0  0  0  0  0  0  0  0  0  0  0
    0.0000    0.0000    0.0000 C   0  0  0  0  0  0  0  0  0  0  0  0
    0.0000    0.0000    0.0000 C   0  0  0  0  0  0  0  0  0  0  0  0
    0.0000    0.0000    0.0000 C   0  0  0  0  0  0  0  0  0  0  0  0
    0.0000    0.0000    0.0000 C   0  0  0  0  0  0  0  0  0  0  0  0
    0.0000    0.0000    0.0000 N   0  0  0  0  0  0  0  0  0  0  0  0
    0.0000    0.0000    0.0000 C   0  0  0  0  0  0  0  0  0  0  0  0
    0.0000    0.0000    0.0000 C   0  0  0  0  0  0  0  0  0  0  0  0
    0.0000    0.0000    0.0000 C   0  0  0  0  0  0  0  0  0  0  0  0
    0.0000    0.0000    0.0000 C   0  0  0  0  0  0  0  0  0  0  0  0
    0.0000    0.0000    0.0000 C   0  0  0  0  0  0  0  0  0  0  0  0
    0.0000    0.0000    0.0000 C   0  0  0  0  0  0  0  0  0  0  0  0
    0.0000    0.0000    0.0000 C   0  0  0  0  0  0  0  0  0  0  0  0
    0.0000    0.0000    0.0000 C   0  0  0  0  0  0  0  0  0  0  0  0
    0.0000    0.0000    0.0000 C   0  0  0  0  0  0  0  0  0  0  0  0
    0.0000    0.0000    0.0000 N   0  0  0  0  0  0  0  0  0  0  0  0
  1  2  1  0
  2  3  2  0
  3  4  1  0
  4  5  1  0
  4  6  2  0
  6  7  1  0
  7  8  2  0
  8  9  1  0
  9 10  1  0
 10 11  2  0
 10 12  1  0
 12 13  2  0
 13 14  1  0
 14 15  2  0
 15 16  1  0
 16 17  2  0
 17 18  1  0
 18 19  1  0
 19 20  1  0
 20 21  2  0
 21 22  1  0
 22 23  2  0
 23 24  1  0
 24 25  1  0
 25 26  1  0
 26 27  1  0
 27 28  1  0
 28 29  1  0
 29 30  1  0
 30 31  1  0
 31 32  1  0
 32 33  1  0
 33 34  1  0
 34 35  2  0
 35 36  1  0
 36 37  2  0
 37 38  1  0
 38 39  1  0
 39 40  1  0
 40 41  2  0
 41 42  1  0
 42 43  2  0
 43 44  1  0
 44 45  2  0
 45 46  1  0
 46 47  2  0
 46 48  1  0
 48 49  1  0
 49 50  2  0
 50 51  1  0
 51 52  2  0
 52 53  1  0
 53 54  2  0
 54 55  1  0
 54 56  1  0
 56 57  2  0
 57 58  1  0
 57 59  1  0
 59 60  2  0
 37 61  1  0
 61 62  2  0
 23 63  1  0
 63 64  2  0
  8 65  1  0
 65 66  2  0
 66 67  1  0
 67 68  2  0
 68  2  1  0
 67  6  1  0
 17 12  1  0
 64 20  1  0
 62 34  1  0
 45 40  1  0
 60 49  1  0
 59 52  1  0
M  END
>  <pIC50>  (663) 
5.86

>  <ChEMBL_ID>  (663) 
CHEMBL1762384

>  <document_journal>  (663) 
Eur. J. Med. Chem.

>  <bao_endpoint>  (663) 
BAO_0000190

>  <potential_duplicate>  (663) 
False

>  <uo_units>  (663) 
UO_0000065

>  <canonical_smiles>  (663) 
Cc1cc(N)c2cc(NC(=O)c3ccccc3COc4ccc(CNCCCCCCNCc5ccc(OCc6ccccc6C(=O)Nc7ccc8nc(C)cc(N)c8c7)cc5)cc4)ccc2n1

>  <parent_molecule_chembl_id>  (663) 
CHEMBL1762384

>  <assay_type>  (663) 
B

>  <src_id>  (663) 
1

>  <ligand_efficiency>  (663) 
{u'le': u'0.12', u'bei': u'6.46', u'sei': u'3.28', u'lle': u'-2.4'}

>  <standard_flag>  (663) 
True

>  <molecule_chembl_id>  (663) 
CHEMBL1762384

>  <target_organism>  (663) 
Homo sapiens

>  <standard_units>  (663) 
nM

>  <record_id>  (663) 
1414855

>  <document_chembl_id>  (663) 
CHEMBL1759965

>  <bao_format>  (663) 
BAO_0000219

>  <data_validity_description>  (663) 
None

>  <activity_id>  (663) 
6152921

>  <standard_type>  (663) 
IC50

>  <target_chembl_id>  (663) 
CHEMBL233

>  <data_validity_comment>  (663) 
None

>  <published_value>  (663) 
1390

>  <document_year>  (663) 
2011

>  <target_pref_name>  (663) 
Mu opioid receptor

>  <assay_chembl_id>  (663) 
CHEMBL1764074

>  <standard_relation>  (663) 
=

>  <assay_description>  (663) 
Displacement of [3H]-naltrindole from human mu opioid receptor expressed in CHO cells after 2 hrs by scintillation counting

>  <published_relation>  (663) 
=

>  <standard_value>  (663) 
1390

>  <qudt_units>  (663) 
http://www.openphacts.org/units/Nanomolar

>  <target_tax_id>  (663) 
9606

>  <bao_label>  (663) 
cell-based format

>  <published_units>  (663) 
nM

>  <pchembl_value>  (663) 
5.86

>  <published_type>  (663) 
IC50

>  <activity_comment>  (663) 
None

$$$$

     RDKit          

 69 76  0  0  0  0  0  0  0  0999 V2000
    0.0000    0.0000    0.0000 C   0  0  0  0  0  0  0  0  0  0  0  0
    0.0000    0.0000    0.0000 C   0  0  0  0  0  0  0  0  0  0  0  0
    0.0000    0.0000    0.0000 C   0  0  0  0  0  0  0  0  0  0  0  0
    0.0000    0.0000    0.0000 C   0  0  0  0  0  0  0  0  0  0  0  0
    0.0000    0.0000    0.0000 N   0  0  0  0  0  0  0  0  0  0  0  0
    0.0000    0.0000    0.0000 C   0  0  0  0  0  0  0  0  0  0  0  0
    0.0000    0.0000    0.0000 C   0  0  0  0  0  0  0  0  0  0  0  0
    0.0000    0.0000    0.0000 C   0  0  0  0  0  0  0  0  0  0  0  0
    0.0000    0.0000    0.0000 N   0  0  0  0  0  0  0  0  0  0  0  0
    0.0000    0.0000    0.0000 C   0  0  0  0  0  0  0  0  0  0  0  0
    0.0000    0.0000    0.0000 O   0  0  0  0  0  0  0  0  0  0  0  0
    0.0000    0.0000    0.0000 C   0  0  0  0  0  0  0  0  0  0  0  0
    0.0000    0.0000    0.0000 C   0  0  0  0  0  0  0  0  0  0  0  0
    0.0000    0.0000    0.0000 C   0  0  0  0  0  0  0  0  0  0  0  0
    0.0000    0.0000    0.0000 C   0  0  0  0  0  0  0  0  0  0  0  0
    0.0000    0.0000    0.0000 C   0  0  0  0  0  0  0  0  0  0  0  0
    0.0000    0.0000    0.0000 C   0  0  0  0  0  0  0  0  0  0  0  0
    0.0000    0.0000    0.0000 C   0  0  0  0  0  0  0  0  0  0  0  0
    0.0000    0.0000    0.0000 O   0  0  0  0  0  0  0  0  0  0  0  0
    0.0000    0.0000    0.0000 C   0  0  0  0  0  0  0  0  0  0  0  0
    0.0000    0.0000    0.0000 C   0  0  0  0  0  0  0  0  0  0  0  0
    0.0000    0.0000    0.0000 C   0  0  0  0  0  0  0  0  0  0  0  0
    0.0000    0.0000    0.0000 C   0  0  0  0  0  0  0  0  0  0  0  0
    0.0000    0.0000    0.0000 C   0  0  0  0  0  0  0  0  0  0  0  0
    0.0000    0.0000    0.0000 N   0  0  0  0  0  0  0  0  0  0  0  0
    0.0000    0.0000    0.0000 C   0  0  0  0  0  0  0  0  0  0  0  0
    0.0000    0.0000    0.0000 C   0  0  0  0  0  0  0  0  0  0  0  0
    0.0000    0.0000    0.0000 C   0  0  0  0  0  0  0  0  0  0  0  0
    0.0000    0.0000    0.0000 C   0  0  0  0  0  0  0  0  0  0  0  0
    0.0000    0.0000    0.0000 C   0  0  0  0  0  0  0  0  0  0  0  0
    0.0000    0.0000    0.0000 C   0  0  0  0  0  0  0  0  0  0  0  0
    0.0000    0.0000    0.0000 C   0  0  0  0  0  0  0  0  0  0  0  0
    0.0000    0.0000    0.0000 N   0  0  0  0  0  0  0  0  0  0  0  0
    0.0000    0.0000    0.0000 C   0  0  0  0  0  0  0  0  0  0  0  0
    0.0000    0.0000    0.0000 C   0  0  0  0  0  0  0  0  0  0  0  0
    0.0000    0.0000    0.0000 C   0  0  0  0  0  0  0  0  0  0  0  0
    0.0000    0.0000    0.0000 C   0  0  0  0  0  0  0  0  0  0  0  0
    0.0000    0.0000    0.0000 C   0  0  0  0  0  0  0  0  0  0  0  0
    0.0000    0.0000    0.0000 O   0  0  0  0  0  0  0  0  0  0  0  0
    0.0000    0.0000    0.0000 C   0  0  0  0  0  0  0  0  0  0  0  0
    0.0000    0.0000    0.0000 C   0  0  0  0  0  0  0  0  0  0  0  0
    0.0000    0.0000    0.0000 C   0  0  0  0  0  0  0  0  0  0  0  0
    0.0000    0.0000    0.0000 C   0  0  0  0  0  0  0  0  0  0  0  0
    0.0000    0.0000    0.0000 C   0  0  0  0  0  0  0  0  0  0  0  0
    0.0000    0.0000    0.0000 C   0  0  0  0  0  0  0  0  0  0  0  0
    0.0000    0.0000    0.0000 C   0  0  0  0  0  0  0  0  0  0  0  0
    0.0000    0.0000    0.0000 C   0  0  0  0  0  0  0  0  0  0  0  0
    0.0000    0.0000    0.0000 O   0  0  0  0  0  0  0  0  0  0  0  0
    0.0000    0.0000    0.0000 N   0  0  0  0  0  0  0  0  0  0  0  0
    0.0000    0.0000    0.0000 C   0  0  0  0  0  0  0  0  0  0  0  0
    0.0000    0.0000    0.0000 C   0  0  0  0  0  0  0  0  0  0  0  0
    0.0000    0.0000    0.0000 C   0  0  0  0  0  0  0  0  0  0  0  0
    0.0000    0.0000    0.0000 C   0  0  0  0  0  0  0  0  0  0  0  0
    0.0000    0.0000    0.0000 N   0  0  0  0  0  0  0  0  0  0  0  0
    0.0000    0.0000    0.0000 C   0  0  0  0  0  0  0  0  0  0  0  0
    0.0000    0.0000    0.0000 C   0  0  0  0  0  0  0  0  0  0  0  0
    0.0000    0.0000    0.0000 C   0  0  0  0  0  0  0  0  0  0  0  0
    0.0000    0.0000    0.0000 C   0  0  0  0  0  0  0  0  0  0  0  0
    0.0000    0.0000    0.0000 N   0  0  0  0  0  0  0  0  0  0  0  0
    0.0000    0.0000    0.0000 C   0  0  0  0  0  0  0  0  0  0  0  0
    0.0000    0.0000    0.0000 C   0  0  0  0  0  0  0  0  0  0  0  0
    0.0000    0.0000    0.0000 C   0  0  0  0  0  0  0  0  0  0  0  0
    0.0000    0.0000    0.0000 C   0  0  0  0  0  0  0  0  0  0  0  0
    0.0000    0.0000    0.0000 C   0  0  0  0  0  0  0  0  0  0  0  0
    0.0000    0.0000    0.0000 C   0  0  0  0  0  0  0  0  0  0  0  0
    0.0000    0.0000    0.0000 C   0  0  0  0  0  0  0  0  0  0  0  0
    0.0000    0.0000    0.0000 C   0  0  0  0  0  0  0  0  0  0  0  0
    0.0000    0.0000    0.0000 C   0  0  0  0  0  0  0  0  0  0  0  0
    0.0000    0.0000    0.0000 N   0  0  0  0  0  0  0  0  0  0  0  0
  1  2  1  0
  2  3  2  0
  3  4  1  0
  4  5  1  0
  4  6  2  0
  6  7  1  0
  7  8  2  0
  8  9  1  0
  9 10  1  0
 10 11  2  0
 10 12  1  0
 12 13  2  0
 13 14  1  0
 14 15  2  0
 15 16  1  0
 16 17  2  0
 17 18  1  0
 18 19  1  0
 19 20  1  0
 20 21  2  0
 21 22  1  0
 22 23  2  0
 23 24  1  0
 24 25  1  0
 25 26  1  0
 26 27  1  0
 27 28  1  0
 28 29  1  0
 29 30  1  0
 30 31  1  0
 31 32  1  0
 32 33  1  0
 33 34  1  0
 34 35  1  0
 35 36  2  0
 36 37  1  0
 37 38  2  0
 38 39  1  0
 39 40  1  0
 40 41  1  0
 41 42  2  0
 42 43  1  0
 43 44  2  0
 44 45  1  0
 45 46  2  0
 46 47  1  0
 47 48  2  0
 47 49  1  0
 49 50  1  0
 50 51  2  0
 51 52  1  0
 52 53  2  0
 53 54  1  0
 54 55  2  0
 55 56  1  0
 55 57  1  0
 57 58  2  0
 58 59  1  0
 58 60  1  0
 60 61  2  0
 38 62  1  0
 62 63  2  0
 23 64  1  0
 64 65  2  0
  8 66  1  0
 66 67  2  0
 67 68  1  0
 68 69  2  0
 69  2  1  0
 68  6  1  0
 17 12  1  0
 65 20  1  0
 63 35  1  0
 46 41  1  0
 61 50  1  0
 60 53  1  0
M  END
>  <pIC50>  (664) 
5.98

>  <ChEMBL_ID>  (664) 
CHEMBL1762385

>  <document_journal>  (664) 
Eur. J. Med. Chem.

>  <bao_endpoint>  (664) 
BAO_0000190

>  <potential_duplicate>  (664) 
False

>  <uo_units>  (664) 
UO_0000065

>  <canonical_smiles>  (664) 
Cc1cc(N)c2cc(NC(=O)c3ccccc3COc4ccc(CNCCCCCCCNCc5ccc(OCc6ccccc6C(=O)Nc7ccc8nc(C)cc(N)c8c7)cc5)cc4)ccc2n1

>  <parent_molecule_chembl_id>  (664) 
CHEMBL1762385

>  <assay_type>  (664) 
B

>  <src_id>  (664) 
1

>  <ligand_efficiency>  (664) 
{u'le': u'0.12', u'bei': u'6.5', u'sei': u'3.35', u'lle': u'-2.73'}

>  <standard_flag>  (664) 
True

>  <molecule_chembl_id>  (664) 
CHEMBL1762385

>  <target_organism>  (664) 
Homo sapiens

>  <standard_units>  (664) 
nM

>  <record_id>  (664) 
1414856

>  <document_chembl_id>  (664) 
CHEMBL1759965

>  <bao_format>  (664) 
BAO_0000219

>  <data_validity_description>  (664) 
None

>  <activity_id>  (664) 
6152922

>  <standard_type>  (664) 
IC50

>  <target_chembl_id>  (664) 
CHEMBL233

>  <data_validity_comment>  (664) 
None

>  <published_value>  (664) 
1038

>  <document_year>  (664) 
2011

>  <target_pref_name>  (664) 
Mu opioid receptor

>  <assay_chembl_id>  (664) 
CHEMBL1764074

>  <standard_relation>  (664) 
=

>  <assay_description>  (664) 
Displacement of [3H]-naltrindole from human mu opioid receptor expressed in CHO cells after 2 hrs by scintillation counting

>  <published_relation>  (664) 
=

>  <standard_value>  (664) 
1038

>  <qudt_units>  (664) 
http://www.openphacts.org/units/Nanomolar

>  <target_tax_id>  (664) 
9606

>  <bao_label>  (664) 
cell-based format

>  <published_units>  (664) 
nM

>  <pchembl_value>  (664) 
5.98

>  <published_type>  (664) 
IC50

>  <activity_comment>  (664) 
None

$$$$

     RDKit          

 70 77  0  0  0  0  0  0  0  0999 V2000
    0.0000    0.0000    0.0000 C   0  0  0  0  0  0  0  0  0  0  0  0
    0.0000    0.0000    0.0000 C   0  0  0  0  0  0  0  0  0  0  0  0
    0.0000    0.0000    0.0000 C   0  0  0  0  0  0  0  0  0  0  0  0
    0.0000    0.0000    0.0000 C   0  0  0  0  0  0  0  0  0  0  0  0
    0.0000    0.0000    0.0000 N   0  0  0  0  0  0  0  0  0  0  0  0
    0.0000    0.0000    0.0000 C   0  0  0  0  0  0  0  0  0  0  0  0
    0.0000    0.0000    0.0000 C   0  0  0  0  0  0  0  0  0  0  0  0
    0.0000    0.0000    0.0000 C   0  0  0  0  0  0  0  0  0  0  0  0
    0.0000    0.0000    0.0000 N   0  0  0  0  0  0  0  0  0  0  0  0
    0.0000    0.0000    0.0000 C   0  0  0  0  0  0  0  0  0  0  0  0
    0.0000    0.0000    0.0000 O   0  0  0  0  0  0  0  0  0  0  0  0
    0.0000    0.0000    0.0000 C   0  0  0  0  0  0  0  0  0  0  0  0
    0.0000    0.0000    0.0000 C   0  0  0  0  0  0  0  0  0  0  0  0
    0.0000    0.0000    0.0000 C   0  0  0  0  0  0  0  0  0  0  0  0
    0.0000    0.0000    0.0000 C   0  0  0  0  0  0  0  0  0  0  0  0
    0.0000    0.0000    0.0000 C   0  0  0  0  0  0  0  0  0  0  0  0
    0.0000    0.0000    0.0000 C   0  0  0  0  0  0  0  0  0  0  0  0
    0.0000    0.0000    0.0000 C   0  0  0  0  0  0  0  0  0  0  0  0
    0.0000    0.0000    0.0000 O   0  0  0  0  0  0  0  0  0  0  0  0
    0.0000    0.0000    0.0000 C   0  0  0  0  0  0  0  0  0  0  0  0
    0.0000    0.0000    0.0000 C   0  0  0  0  0  0  0  0  0  0  0  0
    0.0000    0.0000    0.0000 C   0  0  0  0  0  0  0  0  0  0  0  0
    0.0000    0.0000    0.0000 C   0  0  0  0  0  0  0  0  0  0  0  0
    0.0000    0.0000    0.0000 C   0  0  0  0  0  0  0  0  0  0  0  0
    0.0000    0.0000    0.0000 N   0  0  0  0  0  0  0  0  0  0  0  0
    0.0000    0.0000    0.0000 C   0  0  0  0  0  0  0  0  0  0  0  0
    0.0000    0.0000    0.0000 C   0  0  0  0  0  0  0  0  0  0  0  0
    0.0000    0.0000    0.0000 C   0  0  0  0  0  0  0  0  0  0  0  0
    0.0000    0.0000    0.0000 C   0  0  0  0  0  0  0  0  0  0  0  0
    0.0000    0.0000    0.0000 C   0  0  0  0  0  0  0  0  0  0  0  0
    0.0000    0.0000    0.0000 C   0  0  0  0  0  0  0  0  0  0  0  0
    0.0000    0.0000    0.0000 C   0  0  0  0  0  0  0  0  0  0  0  0
    0.0000    0.0000    0.0000 C   0  0  0  0  0  0  0  0  0  0  0  0
    0.0000    0.0000    0.0000 N   0  0  0  0  0  0  0  0  0  0  0  0
    0.0000    0.0000    0.0000 C   0  0  0  0  0  0  0  0  0  0  0  0
    0.0000    0.0000    0.0000 C   0  0  0  0  0  0  0  0  0  0  0  0
    0.0000    0.0000    0.0000 C   0  0  0  0  0  0  0  0  0  0  0  0
    0.0000    0.0000    0.0000 C   0  0  0  0  0  0  0  0  0  0  0  0
    0.0000    0.0000    0.0000 C   0  0  0  0  0  0  0  0  0  0  0  0
    0.0000    0.0000    0.0000 O   0  0  0  0  0  0  0  0  0  0  0  0
    0.0000    0.0000    0.0000 C   0  0  0  0  0  0  0  0  0  0  0  0
    0.0000    0.0000    0.0000 C   0  0  0  0  0  0  0  0  0  0  0  0
    0.0000    0.0000    0.0000 C   0  0  0  0  0  0  0  0  0  0  0  0
    0.0000    0.0000    0.0000 C   0  0  0  0  0  0  0  0  0  0  0  0
    0.0000    0.0000    0.0000 C   0  0  0  0  0  0  0  0  0  0  0  0
    0.0000    0.0000    0.0000 C   0  0  0  0  0  0  0  0  0  0  0  0
    0.0000    0.0000    0.0000 C   0  0  0  0  0  0  0  0  0  0  0  0
    0.0000    0.0000    0.0000 C   0  0  0  0  0  0  0  0  0  0  0  0
    0.0000    0.0000    0.0000 O   0  0  0  0  0  0  0  0  0  0  0  0
    0.0000    0.0000    0.0000 N   0  0  0  0  0  0  0  0  0  0  0  0
    0.0000    0.0000    0.0000 C   0  0  0  0  0  0  0  0  0  0  0  0
    0.0000    0.0000    0.0000 C   0  0  0  0  0  0  0  0  0  0  0  0
    0.0000    0.0000    0.0000 C   0  0  0  0  0  0  0  0  0  0  0  0
    0.0000    0.0000    0.0000 C   0  0  0  0  0  0  0  0  0  0  0  0
    0.0000    0.0000    0.0000 N   0  0  0  0  0  0  0  0  0  0  0  0
    0.0000    0.0000    0.0000 C   0  0  0  0  0  0  0  0  0  0  0  0
    0.0000    0.0000    0.0000 C   0  0  0  0  0  0  0  0  0  0  0  0
    0.0000    0.0000    0.0000 C   0  0  0  0  0  0  0  0  0  0  0  0
    0.0000    0.0000    0.0000 C   0  0  0  0  0  0  0  0  0  0  0  0
    0.0000    0.0000    0.0000 N   0  0  0  0  0  0  0  0  0  0  0  0
    0.0000    0.0000    0.0000 C   0  0  0  0  0  0  0  0  0  0  0  0
    0.0000    0.0000    0.0000 C   0  0  0  0  0  0  0  0  0  0  0  0
    0.0000    0.0000    0.0000 C   0  0  0  0  0  0  0  0  0  0  0  0
    0.0000    0.0000    0.0000 C   0  0  0  0  0  0  0  0  0  0  0  0
    0.0000    0.0000    0.0000 C   0  0  0  0  0  0  0  0  0  0  0  0
    0.0000    0.0000    0.0000 C   0  0  0  0  0  0  0  0  0  0  0  0
    0.0000    0.0000    0.0000 C   0  0  0  0  0  0  0  0  0  0  0  0
    0.0000    0.0000    0.0000 C   0  0  0  0  0  0  0  0  0  0  0  0
    0.0000    0.0000    0.0000 C   0  0  0  0  0  0  0  0  0  0  0  0
    0.0000    0.0000    0.0000 N   0  0  0  0  0  0  0  0  0  0  0  0
  1  2  1  0
  2  3  2  0
  3  4  1  0
  4  5  1  0
  4  6  2  0
  6  7  1  0
  7  8  2  0
  8  9  1  0
  9 10  1  0
 10 11  2  0
 10 12  1  0
 12 13  2  0
 13 14  1  0
 14 15  2  0
 15 16  1  0
 16 17  2  0
 17 18  1  0
 18 19  1  0
 19 20  1  0
 20 21  2  0
 21 22  1  0
 22 23  2  0
 23 24  1  0
 24 25  1  0
 25 26  1  0
 26 27  1  0
 27 28  1  0
 28 29  1  0
 29 30  1  0
 30 31  1  0
 31 32  1  0
 32 33  1  0
 33 34  1  0
 34 35  1  0
 35 36  1  0
 36 37  2  0
 37 38  1  0
 38 39  2  0
 39 40  1  0
 40 41  1  0
 41 42  1  0
 42 43  2  0
 43 44  1  0
 44 45  2  0
 45 46  1  0
 46 47  2  0
 47 48  1  0
 48 49  2  0
 48 50  1  0
 50 51  1  0
 51 52  2  0
 52 53  1  0
 53 54  2  0
 54 55  1  0
 55 56  2  0
 56 57  1  0
 56 58  1  0
 58 59  2  0
 59 60  1  0
 59 61  1  0
 61 62  2  0
 39 63  1  0
 63 64  2  0
 23 65  1  0
 65 66  2  0
  8 67  1  0
 67 68  2  0
 68 69  1  0
 69 70  2  0
 70  2  1  0
 69  6  1  0
 17 12  1  0
 66 20  1  0
 64 36  1  0
 47 42  1  0
 62 51  1  0
 61 54  1  0
M  END
>  <pIC50>  (665) 
5.72

>  <ChEMBL_ID>  (665) 
CHEMBL1762386

>  <document_journal>  (665) 
Eur. J. Med. Chem.

>  <bao_endpoint>  (665) 
BAO_0000190

>  <potential_duplicate>  (665) 
False

>  <uo_units>  (665) 
UO_0000065

>  <canonical_smiles>  (665) 
Cc1cc(N)c2cc(NC(=O)c3ccccc3COc4ccc(CNCCCCCCCCNCc5ccc(OCc6ccccc6C(=O)Nc7ccc8nc(C)cc(N)c8c7)cc5)cc4)ccc2n1

>  <parent_molecule_chembl_id>  (665) 
CHEMBL1762386

>  <assay_type>  (665) 
B

>  <src_id>  (665) 
1

>  <ligand_efficiency>  (665) 
{u'le': u'0.11', u'bei': u'6.12', u'sei': u'3.2', u'lle': u'-3.45'}

>  <standard_flag>  (665) 
True

>  <molecule_chembl_id>  (665) 
CHEMBL1762386

>  <target_organism>  (665) 
Homo sapiens

>  <standard_units>  (665) 
nM

>  <record_id>  (665) 
1414857

>  <document_chembl_id>  (665) 
CHEMBL1759965

>  <bao_format>  (665) 
BAO_0000219

>  <data_validity_description>  (665) 
None

>  <activity_id>  (665) 
6152923

>  <standard_type>  (665) 
IC50

>  <target_chembl_id>  (665) 
CHEMBL233

>  <data_validity_comment>  (665) 
None

>  <published_value>  (665) 
1900

>  <document_year>  (665) 
2011

>  <target_pref_name>  (665) 
Mu opioid receptor

>  <assay_chembl_id>  (665) 
CHEMBL1764074

>  <standard_relation>  (665) 
=

>  <assay_description>  (665) 
Displacement of [3H]-naltrindole from human mu opioid receptor expressed in CHO cells after 2 hrs by scintillation counting

>  <published_relation>  (665) 
=

>  <standard_value>  (665) 
1900

>  <qudt_units>  (665) 
http://www.openphacts.org/units/Nanomolar

>  <target_tax_id>  (665) 
9606

>  <bao_label>  (665) 
cell-based format

>  <published_units>  (665) 
nM

>  <pchembl_value>  (665) 
5.72

>  <published_type>  (665) 
IC50

>  <activity_comment>  (665) 
None

$$$$

     RDKit          

 71 78  0  0  0  0  0  0  0  0999 V2000
    0.0000    0.0000    0.0000 C   0  0  0  0  0  0  0  0  0  0  0  0
    0.0000    0.0000    0.0000 C   0  0  0  0  0  0  0  0  0  0  0  0
    0.0000    0.0000    0.0000 C   0  0  0  0  0  0  0  0  0  0  0  0
    0.0000    0.0000    0.0000 C   0  0  0  0  0  0  0  0  0  0  0  0
    0.0000    0.0000    0.0000 N   0  0  0  0  0  0  0  0  0  0  0  0
    0.0000    0.0000    0.0000 C   0  0  0  0  0  0  0  0  0  0  0  0
    0.0000    0.0000    0.0000 C   0  0  0  0  0  0  0  0  0  0  0  0
    0.0000    0.0000    0.0000 C   0  0  0  0  0  0  0  0  0  0  0  0
    0.0000    0.0000    0.0000 N   0  0  0  0  0  0  0  0  0  0  0  0
    0.0000    0.0000    0.0000 C   0  0  0  0  0  0  0  0  0  0  0  0
    0.0000    0.0000    0.0000 O   0  0  0  0  0  0  0  0  0  0  0  0
    0.0000    0.0000    0.0000 C   0  0  0  0  0  0  0  0  0  0  0  0
    0.0000    0.0000    0.0000 C   0  0  0  0  0  0  0  0  0  0  0  0
    0.0000    0.0000    0.0000 C   0  0  0  0  0  0  0  0  0  0  0  0
    0.0000    0.0000    0.0000 C   0  0  0  0  0  0  0  0  0  0  0  0
    0.0000    0.0000    0.0000 C   0  0  0  0  0  0  0  0  0  0  0  0
    0.0000    0.0000    0.0000 C   0  0  0  0  0  0  0  0  0  0  0  0
    0.0000    0.0000    0.0000 C   0  0  0  0  0  0  0  0  0  0  0  0
    0.0000    0.0000    0.0000 O   0  0  0  0  0  0  0  0  0  0  0  0
    0.0000    0.0000    0.0000 C   0  0  0  0  0  0  0  0  0  0  0  0
    0.0000    0.0000    0.0000 C   0  0  0  0  0  0  0  0  0  0  0  0
    0.0000    0.0000    0.0000 C   0  0  0  0  0  0  0  0  0  0  0  0
    0.0000    0.0000    0.0000 C   0  0  0  0  0  0  0  0  0  0  0  0
    0.0000    0.0000    0.0000 C   0  0  0  0  0  0  0  0  0  0  0  0
    0.0000    0.0000    0.0000 N   0  0  0  0  0  0  0  0  0  0  0  0
    0.0000    0.0000    0.0000 C   0  0  0  0  0  0  0  0  0  0  0  0
    0.0000    0.0000    0.0000 C   0  0  0  0  0  0  0  0  0  0  0  0
    0.0000    0.0000    0.0000 C   0  0  0  0  0  0  0  0  0  0  0  0
    0.0000    0.0000    0.0000 C   0  0  0  0  0  0  0  0  0  0  0  0
    0.0000    0.0000    0.0000 C   0  0  0  0  0  0  0  0  0  0  0  0
    0.0000    0.0000    0.0000 C   0  0  0  0  0  0  0  0  0  0  0  0
    0.0000    0.0000    0.0000 C   0  0  0  0  0  0  0  0  0  0  0  0
    0.0000    0.0000    0.0000 C   0  0  0  0  0  0  0  0  0  0  0  0
    0.0000    0.0000    0.0000 C   0  0  0  0  0  0  0  0  0  0  0  0
    0.0000    0.0000    0.0000 N   0  0  0  0  0  0  0  0  0  0  0  0
    0.0000    0.0000    0.0000 C   0  0  0  0  0  0  0  0  0  0  0  0
    0.0000    0.0000    0.0000 C   0  0  0  0  0  0  0  0  0  0  0  0
    0.0000    0.0000    0.0000 C   0  0  0  0  0  0  0  0  0  0  0  0
    0.0000    0.0000    0.0000 C   0  0  0  0  0  0  0  0  0  0  0  0
    0.0000    0.0000    0.0000 C   0  0  0  0  0  0  0  0  0  0  0  0
    0.0000    0.0000    0.0000 O   0  0  0  0  0  0  0  0  0  0  0  0
    0.0000    0.0000    0.0000 C   0  0  0  0  0  0  0  0  0  0  0  0
    0.0000    0.0000    0.0000 C   0  0  0  0  0  0  0  0  0  0  0  0
    0.0000    0.0000    0.0000 C   0  0  0  0  0  0  0  0  0  0  0  0
    0.0000    0.0000    0.0000 C   0  0  0  0  0  0  0  0  0  0  0  0
    0.0000    0.0000    0.0000 C   0  0  0  0  0  0  0  0  0  0  0  0
    0.0000    0.0000    0.0000 C   0  0  0  0  0  0  0  0  0  0  0  0
    0.0000    0.0000    0.0000 C   0  0  0  0  0  0  0  0  0  0  0  0
    0.0000    0.0000    0.0000 C   0  0  0  0  0  0  0  0  0  0  0  0
    0.0000    0.0000    0.0000 O   0  0  0  0  0  0  0  0  0  0  0  0
    0.0000    0.0000    0.0000 N   0  0  0  0  0  0  0  0  0  0  0  0
    0.0000    0.0000    0.0000 C   0  0  0  0  0  0  0  0  0  0  0  0
    0.0000    0.0000    0.0000 C   0  0  0  0  0  0  0  0  0  0  0  0
    0.0000    0.0000    0.0000 C   0  0  0  0  0  0  0  0  0  0  0  0
    0.0000    0.0000    0.0000 C   0  0  0  0  0  0  0  0  0  0  0  0
    0.0000    0.0000    0.0000 N   0  0  0  0  0  0  0  0  0  0  0  0
    0.0000    0.0000    0.0000 C   0  0  0  0  0  0  0  0  0  0  0  0
    0.0000    0.0000    0.0000 C   0  0  0  0  0  0  0  0  0  0  0  0
    0.0000    0.0000    0.0000 C   0  0  0  0  0  0  0  0  0  0  0  0
    0.0000    0.0000    0.0000 C   0  0  0  0  0  0  0  0  0  0  0  0
    0.0000    0.0000    0.0000 N   0  0  0  0  0  0  0  0  0  0  0  0
    0.0000    0.0000    0.0000 C   0  0  0  0  0  0  0  0  0  0  0  0
    0.0000    0.0000    0.0000 C   0  0  0  0  0  0  0  0  0  0  0  0
    0.0000    0.0000    0.0000 C   0  0  0  0  0  0  0  0  0  0  0  0
    0.0000    0.0000    0.0000 C   0  0  0  0  0  0  0  0  0  0  0  0
    0.0000    0.0000    0.0000 C   0  0  0  0  0  0  0  0  0  0  0  0
    0.0000    0.0000    0.0000 C   0  0  0  0  0  0  0  0  0  0  0  0
    0.0000    0.0000    0.0000 C   0  0  0  0  0  0  0  0  0  0  0  0
    0.0000    0.0000    0.0000 C   0  0  0  0  0  0  0  0  0  0  0  0
    0.0000    0.0000    0.0000 C   0  0  0  0  0  0  0  0  0  0  0  0
    0.0000    0.0000    0.0000 N   0  0  0  0  0  0  0  0  0  0  0  0
  1  2  1  0
  2  3  2  0
  3  4  1  0
  4  5  1  0
  4  6  2  0
  6  7  1  0
  7  8  2  0
  8  9  1  0
  9 10  1  0
 10 11  2  0
 10 12  1  0
 12 13  2  0
 13 14  1  0
 14 15  2  0
 15 16  1  0
 16 17  2  0
 17 18  1  0
 18 19  1  0
 19 20  1  0
 20 21  2  0
 21 22  1  0
 22 23  2  0
 23 24  1  0
 24 25  1  0
 25 26  1  0
 26 27  1  0
 27 28  1  0
 28 29  1  0
 29 30  1  0
 30 31  1  0
 31 32  1  0
 32 33  1  0
 33 34  1  0
 34 35  1  0
 35 36  1  0
 36 37  1  0
 37 38  2  0
 38 39  1  0
 39 40  2  0
 40 41  1  0
 41 42  1  0
 42 43  1  0
 43 44  2  0
 44 45  1  0
 45 46  2  0
 46 47  1  0
 47 48  2  0
 48 49  1  0
 49 50  2  0
 49 51  1  0
 51 52  1  0
 52 53  2  0
 53 54  1  0
 54 55  2  0
 55 56  1  0
 56 57  2  0
 57 58  1  0
 57 59  1  0
 59 60  2  0
 60 61  1  0
 60 62  1  0
 62 63  2  0
 40 64  1  0
 64 65  2  0
 23 66  1  0
 66 67  2  0
  8 68  1  0
 68 69  2  0
 69 70  1  0
 70 71  2  0
 71  2  1  0
 70  6  1  0
 17 12  1  0
 67 20  1  0
 65 37  1  0
 48 43  1  0
 63 52  1  0
 62 55  1  0
M  END
>  <pIC50>  (666) 
5.94

>  <ChEMBL_ID>  (666) 
CHEMBL1762387

>  <document_journal>  (666) 
Eur. J. Med. Chem.

>  <bao_endpoint>  (666) 
BAO_0000190

>  <potential_duplicate>  (666) 
False

>  <uo_units>  (666) 
UO_0000065

>  <canonical_smiles>  (666) 
Cc1cc(N)c2cc(NC(=O)c3ccccc3COc4ccc(CNCCCCCCCCCNCc5ccc(OCc6ccccc6C(=O)Nc7ccc8nc(C)cc(N)c8c7)cc5)cc4)ccc2n1

>  <parent_molecule_chembl_id>  (666) 
CHEMBL1762387

>  <assay_type>  (666) 
B

>  <src_id>  (666) 
1

>  <ligand_efficiency>  (666) 
{u'le': u'0.11', u'bei': u'6.25', u'sei': u'3.32', u'lle': u'-3.69'}

>  <standard_flag>  (666) 
True

>  <molecule_chembl_id>  (666) 
CHEMBL1762387

>  <target_organism>  (666) 
Homo sapiens

>  <standard_units>  (666) 
nM

>  <record_id>  (666) 
1414858

>  <document_chembl_id>  (666) 
CHEMBL1759965

>  <bao_format>  (666) 
BAO_0000219

>  <data_validity_description>  (666) 
None

>  <activity_id>  (666) 
6152924

>  <standard_type>  (666) 
IC50

>  <target_chembl_id>  (666) 
CHEMBL233

>  <data_validity_comment>  (666) 
None

>  <published_value>  (666) 
1160

>  <document_year>  (666) 
2011

>  <target_pref_name>  (666) 
Mu opioid receptor

>  <assay_chembl_id>  (666) 
CHEMBL1764074

>  <standard_relation>  (666) 
=

>  <assay_description>  (666) 
Displacement of [3H]-naltrindole from human mu opioid receptor expressed in CHO cells after 2 hrs by scintillation counting

>  <published_relation>  (666) 
=

>  <standard_value>  (666) 
1160

>  <qudt_units>  (666) 
http://www.openphacts.org/units/Nanomolar

>  <target_tax_id>  (666) 
9606

>  <bao_label>  (666) 
cell-based format

>  <published_units>  (666) 
nM

>  <pchembl_value>  (666) 
5.94

>  <published_type>  (666) 
IC50

>  <activity_comment>  (666) 
None

$$$$

     RDKit          

 72 79  0  0  0  0  0  0  0  0999 V2000
    0.0000    0.0000    0.0000 C   0  0  0  0  0  0  0  0  0  0  0  0
    0.0000    0.0000    0.0000 C   0  0  0  0  0  0  0  0  0  0  0  0
    0.0000    0.0000    0.0000 C   0  0  0  0  0  0  0  0  0  0  0  0
    0.0000    0.0000    0.0000 C   0  0  0  0  0  0  0  0  0  0  0  0
    0.0000    0.0000    0.0000 N   0  0  0  0  0  0  0  0  0  0  0  0
    0.0000    0.0000    0.0000 C   0  0  0  0  0  0  0  0  0  0  0  0
    0.0000    0.0000    0.0000 C   0  0  0  0  0  0  0  0  0  0  0  0
    0.0000    0.0000    0.0000 C   0  0  0  0  0  0  0  0  0  0  0  0
    0.0000    0.0000    0.0000 N   0  0  0  0  0  0  0  0  0  0  0  0
    0.0000    0.0000    0.0000 C   0  0  0  0  0  0  0  0  0  0  0  0
    0.0000    0.0000    0.0000 O   0  0  0  0  0  0  0  0  0  0  0  0
    0.0000    0.0000    0.0000 C   0  0  0  0  0  0  0  0  0  0  0  0
    0.0000    0.0000    0.0000 C   0  0  0  0  0  0  0  0  0  0  0  0
    0.0000    0.0000    0.0000 C   0  0  0  0  0  0  0  0  0  0  0  0
    0.0000    0.0000    0.0000 C   0  0  0  0  0  0  0  0  0  0  0  0
    0.0000    0.0000    0.0000 C   0  0  0  0  0  0  0  0  0  0  0  0
    0.0000    0.0000    0.0000 C   0  0  0  0  0  0  0  0  0  0  0  0
    0.0000    0.0000    0.0000 C   0  0  0  0  0  0  0  0  0  0  0  0
    0.0000    0.0000    0.0000 O   0  0  0  0  0  0  0  0  0  0  0  0
    0.0000    0.0000    0.0000 C   0  0  0  0  0  0  0  0  0  0  0  0
    0.0000    0.0000    0.0000 C   0  0  0  0  0  0  0  0  0  0  0  0
    0.0000    0.0000    0.0000 C   0  0  0  0  0  0  0  0  0  0  0  0
    0.0000    0.0000    0.0000 C   0  0  0  0  0  0  0  0  0  0  0  0
    0.0000    0.0000    0.0000 C   0  0  0  0  0  0  0  0  0  0  0  0
    0.0000    0.0000    0.0000 N   0  0  0  0  0  0  0  0  0  0  0  0
    0.0000    0.0000    0.0000 C   0  0  0  0  0  0  0  0  0  0  0  0
    0.0000    0.0000    0.0000 C   0  0  0  0  0  0  0  0  0  0  0  0
    0.0000    0.0000    0.0000 C   0  0  0  0  0  0  0  0  0  0  0  0
    0.0000    0.0000    0.0000 C   0  0  0  0  0  0  0  0  0  0  0  0
    0.0000    0.0000    0.0000 C   0  0  0  0  0  0  0  0  0  0  0  0
    0.0000    0.0000    0.0000 C   0  0  0  0  0  0  0  0  0  0  0  0
    0.0000    0.0000    0.0000 C   0  0  0  0  0  0  0  0  0  0  0  0
    0.0000    0.0000    0.0000 C   0  0  0  0  0  0  0  0  0  0  0  0
    0.0000    0.0000    0.0000 C   0  0  0  0  0  0  0  0  0  0  0  0
    0.0000    0.0000    0.0000 C   0  0  0  0  0  0  0  0  0  0  0  0
    0.0000    0.0000    0.0000 N   0  0  0  0  0  0  0  0  0  0  0  0
    0.0000    0.0000    0.0000 C   0  0  0  0  0  0  0  0  0  0  0  0
    0.0000    0.0000    0.0000 C   0  0  0  0  0  0  0  0  0  0  0  0
    0.0000    0.0000    0.0000 C   0  0  0  0  0  0  0  0  0  0  0  0
    0.0000    0.0000    0.0000 C   0  0  0  0  0  0  0  0  0  0  0  0
    0.0000    0.0000    0.0000 C   0  0  0  0  0  0  0  0  0  0  0  0
    0.0000    0.0000    0.0000 O   0  0  0  0  0  0  0  0  0  0  0  0
    0.0000    0.0000    0.0000 C   0  0  0  0  0  0  0  0  0  0  0  0
    0.0000    0.0000    0.0000 C   0  0  0  0  0  0  0  0  0  0  0  0
    0.0000    0.0000    0.0000 C   0  0  0  0  0  0  0  0  0  0  0  0
    0.0000    0.0000    0.0000 C   0  0  0  0  0  0  0  0  0  0  0  0
    0.0000    0.0000    0.0000 C   0  0  0  0  0  0  0  0  0  0  0  0
    0.0000    0.0000    0.0000 C   0  0  0  0  0  0  0  0  0  0  0  0
    0.0000    0.0000    0.0000 C   0  0  0  0  0  0  0  0  0  0  0  0
    0.0000    0.0000    0.0000 C   0  0  0  0  0  0  0  0  0  0  0  0
    0.0000    0.0000    0.0000 O   0  0  0  0  0  0  0  0  0  0  0  0
    0.0000    0.0000    0.0000 N   0  0  0  0  0  0  0  0  0  0  0  0
    0.0000    0.0000    0.0000 C   0  0  0  0  0  0  0  0  0  0  0  0
    0.0000    0.0000    0.0000 C   0  0  0  0  0  0  0  0  0  0  0  0
    0.0000    0.0000    0.0000 C   0  0  0  0  0  0  0  0  0  0  0  0
    0.0000    0.0000    0.0000 C   0  0  0  0  0  0  0  0  0  0  0  0
    0.0000    0.0000    0.0000 N   0  0  0  0  0  0  0  0  0  0  0  0
    0.0000    0.0000    0.0000 C   0  0  0  0  0  0  0  0  0  0  0  0
    0.0000    0.0000    0.0000 C   0  0  0  0  0  0  0  0  0  0  0  0
    0.0000    0.0000    0.0000 C   0  0  0  0  0  0  0  0  0  0  0  0
    0.0000    0.0000    0.0000 C   0  0  0  0  0  0  0  0  0  0  0  0
    0.0000    0.0000    0.0000 N   0  0  0  0  0  0  0  0  0  0  0  0
    0.0000    0.0000    0.0000 C   0  0  0  0  0  0  0  0  0  0  0  0
    0.0000    0.0000    0.0000 C   0  0  0  0  0  0  0  0  0  0  0  0
    0.0000    0.0000    0.0000 C   0  0  0  0  0  0  0  0  0  0  0  0
    0.0000    0.0000    0.0000 C   0  0  0  0  0  0  0  0  0  0  0  0
    0.0000    0.0000    0.0000 C   0  0  0  0  0  0  0  0  0  0  0  0
    0.0000    0.0000    0.0000 C   0  0  0  0  0  0  0  0  0  0  0  0
    0.0000    0.0000    0.0000 C   0  0  0  0  0  0  0  0  0  0  0  0
    0.0000    0.0000    0.0000 C   0  0  0  0  0  0  0  0  0  0  0  0
    0.0000    0.0000    0.0000 C   0  0  0  0  0  0  0  0  0  0  0  0
    0.0000    0.0000    0.0000 N   0  0  0  0  0  0  0  0  0  0  0  0
  1  2  1  0
  2  3  2  0
  3  4  1  0
  4  5  1  0
  4  6  2  0
  6  7  1  0
  7  8  2  0
  8  9  1  0
  9 10  1  0
 10 11  2  0
 10 12  1  0
 12 13  2  0
 13 14  1  0
 14 15  2  0
 15 16  1  0
 16 17  2  0
 17 18  1  0
 18 19  1  0
 19 20  1  0
 20 21  2  0
 21 22  1  0
 22 23  2  0
 23 24  1  0
 24 25  1  0
 25 26  1  0
 26 27  1  0
 27 28  1  0
 28 29  1  0
 29 30  1  0
 30 31  1  0
 31 32  1  0
 32 33  1  0
 33 34  1  0
 34 35  1  0
 35 36  1  0
 36 37  1  0
 37 38  1  0
 38 39  2  0
 39 40  1  0
 40 41  2  0
 41 42  1  0
 42 43  1  0
 43 44  1  0
 44 45  2  0
 45 46  1  0
 46 47  2  0
 47 48  1  0
 48 49  2  0
 49 50  1  0
 50 51  2  0
 50 52  1  0
 52 53  1  0
 53 54  2  0
 54 55  1  0
 55 56  2  0
 56 57  1  0
 57 58  2  0
 58 59  1  0
 58 60  1  0
 60 61  2  0
 61 62  1  0
 61 63  1  0
 63 64  2  0
 41 65  1  0
 65 66  2  0
 23 67  1  0
 67 68  2  0
  8 69  1  0
 69 70  2  0
 70 71  1  0
 71 72  2  0
 72  2  1  0
 71  6  1  0
 17 12  1  0
 68 20  1  0
 66 38  1  0
 49 44  1  0
 64 53  1  0
 63 56  1  0
M  END
>  <pIC50>  (667) 
5.88

>  <ChEMBL_ID>  (667) 
CHEMBL1762388

>  <document_journal>  (667) 
Eur. J. Med. Chem.

>  <bao_endpoint>  (667) 
BAO_0000190

>  <potential_duplicate>  (667) 
False

>  <uo_units>  (667) 
UO_0000065

>  <canonical_smiles>  (667) 
Cc1cc(N)c2cc(NC(=O)c3ccccc3COc4ccc(CNCCCCCCCCCCNCc5ccc(OCc6ccccc6C(=O)Nc7ccc8nc(C)cc(N)c8c7)cc5)cc4)ccc2n1

>  <parent_molecule_chembl_id>  (667) 
CHEMBL1762388

>  <assay_type>  (667) 
B

>  <src_id>  (667) 
1

>  <ligand_efficiency>  (667) 
{u'le': u'0.11', u'bei': u'6.1', u'sei': u'3.29', u'lle': u'-4.2'}

>  <standard_flag>  (667) 
True

>  <molecule_chembl_id>  (667) 
CHEMBL1762388

>  <target_organism>  (667) 
Homo sapiens

>  <standard_units>  (667) 
nM

>  <record_id>  (667) 
1414859

>  <document_chembl_id>  (667) 
CHEMBL1759965

>  <bao_format>  (667) 
BAO_0000219

>  <data_validity_description>  (667) 
None

>  <activity_id>  (667) 
6152925

>  <standard_type>  (667) 
IC50

>  <target_chembl_id>  (667) 
CHEMBL233

>  <data_validity_comment>  (667) 
None

>  <published_value>  (667) 
1320

>  <document_year>  (667) 
2011

>  <target_pref_name>  (667) 
Mu opioid receptor

>  <assay_chembl_id>  (667) 
CHEMBL1764074

>  <standard_relation>  (667) 
=

>  <assay_description>  (667) 
Displacement of [3H]-naltrindole from human mu opioid receptor expressed in CHO cells after 2 hrs by scintillation counting

>  <published_relation>  (667) 
=

>  <standard_value>  (667) 
1320

>  <qudt_units>  (667) 
http://www.openphacts.org/units/Nanomolar

>  <target_tax_id>  (667) 
9606

>  <bao_label>  (667) 
cell-based format

>  <published_units>  (667) 
nM

>  <pchembl_value>  (667) 
5.88

>  <published_type>  (667) 
IC50

>  <activity_comment>  (667) 
None

$$$$

     RDKit          

 34 37  0  0  0  0  0  0  0  0999 V2000
    0.0000    0.0000    0.0000 C   0  0  0  0  0  0  0  0  0  0  0  0
    0.0000    0.0000    0.0000 C   0  0  0  0  0  0  0  0  0  0  0  0
    0.0000    0.0000    0.0000 C   0  0  0  0  0  0  0  0  0  0  0  0
    0.0000    0.0000    0.0000 N   0  0  0  0  0  0  0  0  0  0  0  0
    0.0000    0.0000    0.0000 C   0  0  0  0  0  0  0  0  0  0  0  0
    0.0000    0.0000    0.0000 C   0  0  0  0  0  0  0  0  0  0  0  0
    0.0000    0.0000    0.0000 C   0  0  0  0  0  0  0  0  0  0  0  0
    0.0000    0.0000    0.0000 C   0  0  0  0  0  0  0  0  0  0  0  0
    0.0000    0.0000    0.0000 C   0  0  0  0  0  0  0  0  0  0  0  0
    0.0000    0.0000    0.0000 O   0  0  0  0  0  0  0  0  0  0  0  0
    0.0000    0.0000    0.0000 C   0  0  0  0  0  0  0  0  0  0  0  0
    0.0000    0.0000    0.0000 C   0  0  0  0  0  0  0  0  0  0  0  0
    0.0000    0.0000    0.0000 C   0  0  0  0  0  0  0  0  0  0  0  0
    0.0000    0.0000    0.0000 C   0  0  0  0  0  0  0  0  0  0  0  0
    0.0000    0.0000    0.0000 C   0  0  0  0  0  0  0  0  0  0  0  0
    0.0000    0.0000    0.0000 C   0  0  0  0  0  0  0  0  0  0  0  0
    0.0000    0.0000    0.0000 C   0  0  0  0  0  0  0  0  0  0  0  0
    0.0000    0.0000    0.0000 C   0  0  0  0  0  0  0  0  0  0  0  0
    0.0000    0.0000    0.0000 O   0  0  0  0  0  0  0  0  0  0  0  0
    0.0000    0.0000    0.0000 N   0  0  0  0  0  0  0  0  0  0  0  0
    0.0000    0.0000    0.0000 C   0  0  0  0  0  0  0  0  0  0  0  0
    0.0000    0.0000    0.0000 C   0  0  0  0  0  0  0  0  0  0  0  0
    0.0000    0.0000    0.0000 C   0  0  0  0  0  0  0  0  0  0  0  0
    0.0000    0.0000    0.0000 C   0  0  0  0  0  0  0  0  0  0  0  0
    0.0000    0.0000    0.0000 N   0  0  0  0  0  0  0  0  0  0  0  0
    0.0000    0.0000    0.0000 C   0  0  0  0  0  0  0  0  0  0  0  0
    0.0000    0.0000    0.0000 C   0  0  0  0  0  0  0  0  0  0  0  0
    0.0000    0.0000    0.0000 C   0  0  0  0  0  0  0  0  0  0  0  0
    0.0000    0.0000    0.0000 C   0  0  0  0  0  0  0  0  0  0  0  0
    0.0000    0.0000    0.0000 N   0  0  0  0  0  0  0  0  0  0  0  0
    0.0000    0.0000    0.0000 C   0  0  0  0  0  0  0  0  0  0  0  0
    0.0000    0.0000    0.0000 C   0  0  0  0  0  0  0  0  0  0  0  0
    0.0000    0.0000    0.0000 C   0  0  0  0  0  0  0  0  0  0  0  0
    0.0000    0.0000    0.0000 C   0  0  0  0  0  0  0  0  0  0  0  0
  1  2  1  0
  2  3  1  0
  3  4  1  0
  4  5  1  0
  5  6  1  0
  6  7  2  0
  7  8  1  0
  8  9  2  0
  9 10  1  0
 10 11  1  0
 11 12  1  0
 12 13  2  0
 13 14  1  0
 14 15  2  0
 15 16  1  0
 16 17  2  0
 17 18  1  0
 18 19  2  0
 18 20  1  0
 20 21  1  0
 21 22  2  0
 22 23  1  0
 23 24  2  0
 24 25  1  0
 25 26  2  0
 26 27  1  0
 26 28  1  0
 28 29  2  0
 29 30  1  0
 29 31  1  0
 31 32  2  0
  9 33  1  0
 33 34  2  0
 34  6  1  0
 17 12  1  0
 32 21  1  0
 31 24  1  0
M  END
>  <pIC50>  (668) 
5.48

>  <ChEMBL_ID>  (668) 
CHEMBL1762397

>  <document_journal>  (668) 
Eur. J. Med. Chem.

>  <bao_endpoint>  (668) 
BAO_0000190

>  <potential_duplicate>  (668) 
False

>  <uo_units>  (668) 
UO_0000065

>  <canonical_smiles>  (668) 
CCCNCc1ccc(OCc2ccccc2C(=O)Nc3ccc4nc(C)cc(N)c4c3)cc1

>  <parent_molecule_chembl_id>  (668) 
CHEMBL1762397

>  <assay_type>  (668) 
B

>  <src_id>  (668) 
1

>  <ligand_efficiency>  (668) 
{u'le': u'0.22', u'bei': u'12.05', u'sei': u'6.13', u'lle': u'1.17'}

>  <standard_flag>  (668) 
True

>  <molecule_chembl_id>  (668) 
CHEMBL1762397

>  <target_organism>  (668) 
Homo sapiens

>  <standard_units>  (668) 
nM

>  <record_id>  (668) 
1414868

>  <document_chembl_id>  (668) 
CHEMBL1759965

>  <bao_format>  (668) 
BAO_0000219

>  <data_validity_description>  (668) 
None

>  <activity_id>  (668) 
6152926

>  <standard_type>  (668) 
IC50

>  <target_chembl_id>  (668) 
CHEMBL233

>  <data_validity_comment>  (668) 
None

>  <published_value>  (668) 
3345

>  <document_year>  (668) 
2011

>  <target_pref_name>  (668) 
Mu opioid receptor

>  <assay_chembl_id>  (668) 
CHEMBL1764074

>  <standard_relation>  (668) 
=

>  <assay_description>  (668) 
Displacement of [3H]-naltrindole from human mu opioid receptor expressed in CHO cells after 2 hrs by scintillation counting

>  <published_relation>  (668) 
=

>  <standard_value>  (668) 
3345

>  <qudt_units>  (668) 
http://www.openphacts.org/units/Nanomolar

>  <target_tax_id>  (668) 
9606

>  <bao_label>  (668) 
cell-based format

>  <published_units>  (668) 
nM

>  <pchembl_value>  (668) 
5.48

>  <published_type>  (668) 
IC50

>  <activity_comment>  (668) 
None

$$$$

     RDKit          

 35 38  0  0  0  0  0  0  0  0999 V2000
    0.0000    0.0000    0.0000 C   0  0  0  0  0  0  0  0  0  0  0  0
    0.0000    0.0000    0.0000 C   0  0  0  0  0  0  0  0  0  0  0  0
    0.0000    0.0000    0.0000 C   0  0  0  0  0  0  0  0  0  0  0  0
    0.0000    0.0000    0.0000 C   0  0  0  0  0  0  0  0  0  0  0  0
    0.0000    0.0000    0.0000 N   0  0  0  0  0  0  0  0  0  0  0  0
    0.0000    0.0000    0.0000 C   0  0  0  0  0  0  0  0  0  0  0  0
    0.0000    0.0000    0.0000 C   0  0  0  0  0  0  0  0  0  0  0  0
    0.0000    0.0000    0.0000 C   0  0  0  0  0  0  0  0  0  0  0  0
    0.0000    0.0000    0.0000 C   0  0  0  0  0  0  0  0  0  0  0  0
    0.0000    0.0000    0.0000 C   0  0  0  0  0  0  0  0  0  0  0  0
    0.0000    0.0000    0.0000 O   0  0  0  0  0  0  0  0  0  0  0  0
    0.0000    0.0000    0.0000 C   0  0  0  0  0  0  0  0  0  0  0  0
    0.0000    0.0000    0.0000 C   0  0  0  0  0  0  0  0  0  0  0  0
    0.0000    0.0000    0.0000 C   0  0  0  0  0  0  0  0  0  0  0  0
    0.0000    0.0000    0.0000 C   0  0  0  0  0  0  0  0  0  0  0  0
    0.0000    0.0000    0.0000 C   0  0  0  0  0  0  0  0  0  0  0  0
    0.0000    0.0000    0.0000 C   0  0  0  0  0  0  0  0  0  0  0  0
    0.0000    0.0000    0.0000 C   0  0  0  0  0  0  0  0  0  0  0  0
    0.0000    0.0000    0.0000 C   0  0  0  0  0  0  0  0  0  0  0  0
    0.0000    0.0000    0.0000 O   0  0  0  0  0  0  0  0  0  0  0  0
    0.0000    0.0000    0.0000 N   0  0  0  0  0  0  0  0  0  0  0  0
    0.0000    0.0000    0.0000 C   0  0  0  0  0  0  0  0  0  0  0  0
    0.0000    0.0000    0.0000 C   0  0  0  0  0  0  0  0  0  0  0  0
    0.0000    0.0000    0.0000 C   0  0  0  0  0  0  0  0  0  0  0  0
    0.0000    0.0000    0.0000 C   0  0  0  0  0  0  0  0  0  0  0  0
    0.0000    0.0000    0.0000 N   0  0  0  0  0  0  0  0  0  0  0  0
    0.0000    0.0000    0.0000 C   0  0  0  0  0  0  0  0  0  0  0  0
    0.0000    0.0000    0.0000 C   0  0  0  0  0  0  0  0  0  0  0  0
    0.0000    0.0000    0.0000 C   0  0  0  0  0  0  0  0  0  0  0  0
    0.0000    0.0000    0.0000 C   0  0  0  0  0  0  0  0  0  0  0  0
    0.0000    0.0000    0.0000 N   0  0  0  0  0  0  0  0  0  0  0  0
    0.0000    0.0000    0.0000 C   0  0  0  0  0  0  0  0  0  0  0  0
    0.0000    0.0000    0.0000 C   0  0  0  0  0  0  0  0  0  0  0  0
    0.0000    0.0000    0.0000 C   0  0  0  0  0  0  0  0  0  0  0  0
    0.0000    0.0000    0.0000 C   0  0  0  0  0  0  0  0  0  0  0  0
  1  2  1  0
  2  3  1  0
  3  4  1  0
  4  5  1  0
  5  6  1  0
  6  7  1  0
  7  8  2  0
  8  9  1  0
  9 10  2  0
 10 11  1  0
 11 12  1  0
 12 13  1  0
 13 14  2  0
 14 15  1  0
 15 16  2  0
 16 17  1  0
 17 18  2  0
 18 19  1  0
 19 20  2  0
 19 21  1  0
 21 22  1  0
 22 23  2  0
 23 24  1  0
 24 25  2  0
 25 26  1  0
 26 27  2  0
 27 28  1  0
 27 29  1  0
 29 30  2  0
 30 31  1  0
 30 32  1  0
 32 33  2  0
 10 34  1  0
 34 35  2  0
 35  7  1  0
 18 13  1  0
 33 22  1  0
 32 25  1  0
M  END
>  <pIC50>  (669) 
5.29

>  <ChEMBL_ID>  (669) 
CHEMBL1762398

>  <document_journal>  (669) 
Eur. J. Med. Chem.

>  <bao_endpoint>  (669) 
BAO_0000190

>  <potential_duplicate>  (669) 
False

>  <uo_units>  (669) 
UO_0000065

>  <canonical_smiles>  (669) 
CCCCNCc1ccc(OCc2ccccc2C(=O)Nc3ccc4nc(C)cc(N)c4c3)cc1

>  <parent_molecule_chembl_id>  (669) 
CHEMBL1762398

>  <assay_type>  (669) 
B

>  <src_id>  (669) 
1

>  <ligand_efficiency>  (669) 
{u'le': u'0.21', u'bei': u'11.29', u'sei': u'5.93', u'lle': u'0.52'}

>  <standard_flag>  (669) 
True

>  <molecule_chembl_id>  (669) 
CHEMBL1762398

>  <target_organism>  (669) 
Homo sapiens

>  <standard_units>  (669) 
nM

>  <record_id>  (669) 
1414869

>  <document_chembl_id>  (669) 
CHEMBL1759965

>  <bao_format>  (669) 
BAO_0000219

>  <data_validity_description>  (669) 
None

>  <activity_id>  (669) 
6152927

>  <standard_type>  (669) 
IC50

>  <target_chembl_id>  (669) 
CHEMBL233

>  <data_validity_comment>  (669) 
None

>  <published_value>  (669) 
5114

>  <document_year>  (669) 
2011

>  <target_pref_name>  (669) 
Mu opioid receptor

>  <assay_chembl_id>  (669) 
CHEMBL1764074

>  <standard_relation>  (669) 
=

>  <assay_description>  (669) 
Displacement of [3H]-naltrindole from human mu opioid receptor expressed in CHO cells after 2 hrs by scintillation counting

>  <published_relation>  (669) 
=

>  <standard_value>  (669) 
5114

>  <qudt_units>  (669) 
http://www.openphacts.org/units/Nanomolar

>  <target_tax_id>  (669) 
9606

>  <bao_label>  (669) 
cell-based format

>  <published_units>  (669) 
nM

>  <pchembl_value>  (669) 
5.29

>  <published_type>  (669) 
IC50

>  <activity_comment>  (669) 
None

$$$$

     RDKit          

 36 39  0  0  0  0  0  0  0  0999 V2000
    0.0000    0.0000    0.0000 C   0  0  0  0  0  0  0  0  0  0  0  0
    0.0000    0.0000    0.0000 C   0  0  0  0  0  0  0  0  0  0  0  0
    0.0000    0.0000    0.0000 C   0  0  0  0  0  0  0  0  0  0  0  0
    0.0000    0.0000    0.0000 C   0  0  0  0  0  0  0  0  0  0  0  0
    0.0000    0.0000    0.0000 C   0  0  0  0  0  0  0  0  0  0  0  0
    0.0000    0.0000    0.0000 N   0  0  0  0  0  0  0  0  0  0  0  0
    0.0000    0.0000    0.0000 C   0  0  0  0  0  0  0  0  0  0  0  0
    0.0000    0.0000    0.0000 C   0  0  0  0  0  0  0  0  0  0  0  0
    0.0000    0.0000    0.0000 C   0  0  0  0  0  0  0  0  0  0  0  0
    0.0000    0.0000    0.0000 C   0  0  0  0  0  0  0  0  0  0  0  0
    0.0000    0.0000    0.0000 C   0  0  0  0  0  0  0  0  0  0  0  0
    0.0000    0.0000    0.0000 O   0  0  0  0  0  0  0  0  0  0  0  0
    0.0000    0.0000    0.0000 C   0  0  0  0  0  0  0  0  0  0  0  0
    0.0000    0.0000    0.0000 C   0  0  0  0  0  0  0  0  0  0  0  0
    0.0000    0.0000    0.0000 C   0  0  0  0  0  0  0  0  0  0  0  0
    0.0000    0.0000    0.0000 C   0  0  0  0  0  0  0  0  0  0  0  0
    0.0000    0.0000    0.0000 C   0  0  0  0  0  0  0  0  0  0  0  0
    0.0000    0.0000    0.0000 C   0  0  0  0  0  0  0  0  0  0  0  0
    0.0000    0.0000    0.0000 C   0  0  0  0  0  0  0  0  0  0  0  0
    0.0000    0.0000    0.0000 C   0  0  0  0  0  0  0  0  0  0  0  0
    0.0000    0.0000    0.0000 O   0  0  0  0  0  0  0  0  0  0  0  0
    0.0000    0.0000    0.0000 N   0  0  0  0  0  0  0  0  0  0  0  0
    0.0000    0.0000    0.0000 C   0  0  0  0  0  0  0  0  0  0  0  0
    0.0000    0.0000    0.0000 C   0  0  0  0  0  0  0  0  0  0  0  0
    0.0000    0.0000    0.0000 C   0  0  0  0  0  0  0  0  0  0  0  0
    0.0000    0.0000    0.0000 C   0  0  0  0  0  0  0  0  0  0  0  0
    0.0000    0.0000    0.0000 N   0  0  0  0  0  0  0  0  0  0  0  0
    0.0000    0.0000    0.0000 C   0  0  0  0  0  0  0  0  0  0  0  0
    0.0000    0.0000    0.0000 C   0  0  0  0  0  0  0  0  0  0  0  0
    0.0000    0.0000    0.0000 C   0  0  0  0  0  0  0  0  0  0  0  0
    0.0000    0.0000    0.0000 C   0  0  0  0  0  0  0  0  0  0  0  0
    0.0000    0.0000    0.0000 N   0  0  0  0  0  0  0  0  0  0  0  0
    0.0000    0.0000    0.0000 C   0  0  0  0  0  0  0  0  0  0  0  0
    0.0000    0.0000    0.0000 C   0  0  0  0  0  0  0  0  0  0  0  0
    0.0000    0.0000    0.0000 C   0  0  0  0  0  0  0  0  0  0  0  0
    0.0000    0.0000    0.0000 C   0  0  0  0  0  0  0  0  0  0  0  0
  1  2  1  0
  2  3  1  0
  3  4  1  0
  4  5  1  0
  5  6  1  0
  6  7  1  0
  7  8  1  0
  8  9  2  0
  9 10  1  0
 10 11  2  0
 11 12  1  0
 12 13  1  0
 13 14  1  0
 14 15  2  0
 15 16  1  0
 16 17  2  0
 17 18  1  0
 18 19  2  0
 19 20  1  0
 20 21  2  0
 20 22  1  0
 22 23  1  0
 23 24  2  0
 24 25  1  0
 25 26  2  0
 26 27  1  0
 27 28  2  0
 28 29  1  0
 28 30  1  0
 30 31  2  0
 31 32  1  0
 31 33  1  0
 33 34  2  0
 11 35  1  0
 35 36  2  0
 36  8  1  0
 19 14  1  0
 34 23  1  0
 33 26  1  0
M  END
>  <pIC50>  (670) 
5.35

>  <ChEMBL_ID>  (670) 
CHEMBL1762399

>  <document_journal>  (670) 
Eur. J. Med. Chem.

>  <bao_endpoint>  (670) 
BAO_0000190

>  <potential_duplicate>  (670) 
False

>  <uo_units>  (670) 
UO_0000065

>  <canonical_smiles>  (670) 
CCCCCNCc1ccc(OCc2ccccc2C(=O)Nc3ccc4nc(C)cc(N)c4c3)cc1

>  <parent_molecule_chembl_id>  (670) 
CHEMBL1762399

>  <assay_type>  (670) 
B

>  <src_id>  (670) 
1

>  <ligand_efficiency>  (670) 
{u'le': u'0.2', u'bei': u'11.09', u'sei': u'5.99', u'lle': u'0.12'}

>  <standard_flag>  (670) 
True

>  <molecule_chembl_id>  (670) 
CHEMBL1762399

>  <target_organism>  (670) 
Homo sapiens

>  <standard_units>  (670) 
nM

>  <record_id>  (670) 
1414870

>  <document_chembl_id>  (670) 
CHEMBL1759965

>  <bao_format>  (670) 
BAO_0000219

>  <data_validity_description>  (670) 
None

>  <activity_id>  (670) 
6152928

>  <standard_type>  (670) 
IC50

>  <target_chembl_id>  (670) 
CHEMBL233

>  <data_validity_comment>  (670) 
None

>  <published_value>  (670) 
4453

>  <document_year>  (670) 
2011

>  <target_pref_name>  (670) 
Mu opioid receptor

>  <assay_chembl_id>  (670) 
CHEMBL1764074

>  <standard_relation>  (670) 
=

>  <assay_description>  (670) 
Displacement of [3H]-naltrindole from human mu opioid receptor expressed in CHO cells after 2 hrs by scintillation counting

>  <published_relation>  (670) 
=

>  <standard_value>  (670) 
4453

>  <qudt_units>  (670) 
http://www.openphacts.org/units/Nanomolar

>  <target_tax_id>  (670) 
9606

>  <bao_label>  (670) 
cell-based format

>  <published_units>  (670) 
nM

>  <pchembl_value>  (670) 
5.35

>  <published_type>  (670) 
IC50

>  <activity_comment>  (670) 
None

$$$$

     RDKit          

 37 40  0  0  0  0  0  0  0  0999 V2000
    0.0000    0.0000    0.0000 C   0  0  0  0  0  0  0  0  0  0  0  0
    0.0000    0.0000    0.0000 C   0  0  0  0  0  0  0  0  0  0  0  0
    0.0000    0.0000    0.0000 C   0  0  0  0  0  0  0  0  0  0  0  0
    0.0000    0.0000    0.0000 C   0  0  0  0  0  0  0  0  0  0  0  0
    0.0000    0.0000    0.0000 C   0  0  0  0  0  0  0  0  0  0  0  0
    0.0000    0.0000    0.0000 C   0  0  0  0  0  0  0  0  0  0  0  0
    0.0000    0.0000    0.0000 N   0  0  0  0  0  0  0  0  0  0  0  0
    0.0000    0.0000    0.0000 C   0  0  0  0  0  0  0  0  0  0  0  0
    0.0000    0.0000    0.0000 C   0  0  0  0  0  0  0  0  0  0  0  0
    0.0000    0.0000    0.0000 C   0  0  0  0  0  0  0  0  0  0  0  0
    0.0000    0.0000    0.0000 C   0  0  0  0  0  0  0  0  0  0  0  0
    0.0000    0.0000    0.0000 C   0  0  0  0  0  0  0  0  0  0  0  0
    0.0000    0.0000    0.0000 O   0  0  0  0  0  0  0  0  0  0  0  0
    0.0000    0.0000    0.0000 C   0  0  0  0  0  0  0  0  0  0  0  0
    0.0000    0.0000    0.0000 C   0  0  0  0  0  0  0  0  0  0  0  0
    0.0000    0.0000    0.0000 C   0  0  0  0  0  0  0  0  0  0  0  0
    0.0000    0.0000    0.0000 C   0  0  0  0  0  0  0  0  0  0  0  0
    0.0000    0.0000    0.0000 C   0  0  0  0  0  0  0  0  0  0  0  0
    0.0000    0.0000    0.0000 C   0  0  0  0  0  0  0  0  0  0  0  0
    0.0000    0.0000    0.0000 C   0  0  0  0  0  0  0  0  0  0  0  0
    0.0000    0.0000    0.0000 C   0  0  0  0  0  0  0  0  0  0  0  0
    0.0000    0.0000    0.0000 O   0  0  0  0  0  0  0  0  0  0  0  0
    0.0000    0.0000    0.0000 N   0  0  0  0  0  0  0  0  0  0  0  0
    0.0000    0.0000    0.0000 C   0  0  0  0  0  0  0  0  0  0  0  0
    0.0000    0.0000    0.0000 C   0  0  0  0  0  0  0  0  0  0  0  0
    0.0000    0.0000    0.0000 C   0  0  0  0  0  0  0  0  0  0  0  0
    0.0000    0.0000    0.0000 C   0  0  0  0  0  0  0  0  0  0  0  0
    0.0000    0.0000    0.0000 N   0  0  0  0  0  0  0  0  0  0  0  0
    0.0000    0.0000    0.0000 C   0  0  0  0  0  0  0  0  0  0  0  0
    0.0000    0.0000    0.0000 C   0  0  0  0  0  0  0  0  0  0  0  0
    0.0000    0.0000    0.0000 C   0  0  0  0  0  0  0  0  0  0  0  0
    0.0000    0.0000    0.0000 C   0  0  0  0  0  0  0  0  0  0  0  0
    0.0000    0.0000    0.0000 N   0  0  0  0  0  0  0  0  0  0  0  0
    0.0000    0.0000    0.0000 C   0  0  0  0  0  0  0  0  0  0  0  0
    0.0000    0.0000    0.0000 C   0  0  0  0  0  0  0  0  0  0  0  0
    0.0000    0.0000    0.0000 C   0  0  0  0  0  0  0  0  0  0  0  0
    0.0000    0.0000    0.0000 C   0  0  0  0  0  0  0  0  0  0  0  0
  1  2  1  0
  2  3  1  0
  3  4  1  0
  4  5  1  0
  5  6  1  0
  6  7  1  0
  7  8  1  0
  8  9  1  0
  9 10  2  0
 10 11  1  0
 11 12  2  0
 12 13  1  0
 13 14  1  0
 14 15  1  0
 15 16  2  0
 16 17  1  0
 17 18  2  0
 18 19  1  0
 19 20  2  0
 20 21  1  0
 21 22  2  0
 21 23  1  0
 23 24  1  0
 24 25  2  0
 25 26  1  0
 26 27  2  0
 27 28  1  0
 28 29  2  0
 29 30  1  0
 29 31  1  0
 31 32  2  0
 32 33  1  0
 32 34  1  0
 34 35  2  0
 12 36  1  0
 36 37  2  0
 37  9  1  0
 20 15  1  0
 35 24  1  0
 34 27  1  0
M  END
>  <pIC50>  (671) 
5.59

>  <ChEMBL_ID>  (671) 
CHEMBL1762400

>  <document_journal>  (671) 
Eur. J. Med. Chem.

>  <bao_endpoint>  (671) 
BAO_0000190

>  <potential_duplicate>  (671) 
False

>  <uo_units>  (671) 
UO_0000065

>  <canonical_smiles>  (671) 
CCCCCCNCc1ccc(OCc2ccccc2C(=O)Nc3ccc4nc(C)cc(N)c4c3)cc1

>  <parent_molecule_chembl_id>  (671) 
CHEMBL1762400

>  <assay_type>  (671) 
B

>  <src_id>  (671) 
1

>  <ligand_efficiency>  (671) 
{u'le': u'0.21', u'bei': u'11.25', u'sei': u'6.26', u'lle': u'-0.09'}

>  <standard_flag>  (671) 
True

>  <molecule_chembl_id>  (671) 
CHEMBL1762400

>  <target_organism>  (671) 
Homo sapiens

>  <standard_units>  (671) 
nM

>  <record_id>  (671) 
1414871

>  <document_chembl_id>  (671) 
CHEMBL1759965

>  <bao_format>  (671) 
BAO_0000219

>  <data_validity_description>  (671) 
None

>  <activity_id>  (671) 
6152929

>  <standard_type>  (671) 
IC50

>  <target_chembl_id>  (671) 
CHEMBL233

>  <data_validity_comment>  (671) 
None

>  <published_value>  (671) 
2593

>  <document_year>  (671) 
2011

>  <target_pref_name>  (671) 
Mu opioid receptor

>  <assay_chembl_id>  (671) 
CHEMBL1764074

>  <standard_relation>  (671) 
=

>  <assay_description>  (671) 
Displacement of [3H]-naltrindole from human mu opioid receptor expressed in CHO cells after 2 hrs by scintillation counting

>  <published_relation>  (671) 
=

>  <standard_value>  (671) 
2593

>  <qudt_units>  (671) 
http://www.openphacts.org/units/Nanomolar

>  <target_tax_id>  (671) 
9606

>  <bao_label>  (671) 
cell-based format

>  <published_units>  (671) 
nM

>  <pchembl_value>  (671) 
5.59

>  <published_type>  (671) 
IC50

>  <activity_comment>  (671) 
None

$$$$

     RDKit          

 38 41  0  0  0  0  0  0  0  0999 V2000
    0.0000    0.0000    0.0000 C   0  0  0  0  0  0  0  0  0  0  0  0
    0.0000    0.0000    0.0000 C   0  0  0  0  0  0  0  0  0  0  0  0
    0.0000    0.0000    0.0000 C   0  0  0  0  0  0  0  0  0  0  0  0
    0.0000    0.0000    0.0000 C   0  0  0  0  0  0  0  0  0  0  0  0
    0.0000    0.0000    0.0000 C   0  0  0  0  0  0  0  0  0  0  0  0
    0.0000    0.0000    0.0000 C   0  0  0  0  0  0  0  0  0  0  0  0
    0.0000    0.0000    0.0000 C   0  0  0  0  0  0  0  0  0  0  0  0
    0.0000    0.0000    0.0000 N   0  0  0  0  0  0  0  0  0  0  0  0
    0.0000    0.0000    0.0000 C   0  0  0  0  0  0  0  0  0  0  0  0
    0.0000    0.0000    0.0000 C   0  0  0  0  0  0  0  0  0  0  0  0
    0.0000    0.0000    0.0000 C   0  0  0  0  0  0  0  0  0  0  0  0
    0.0000    0.0000    0.0000 C   0  0  0  0  0  0  0  0  0  0  0  0
    0.0000    0.0000    0.0000 C   0  0  0  0  0  0  0  0  0  0  0  0
    0.0000    0.0000    0.0000 O   0  0  0  0  0  0  0  0  0  0  0  0
    0.0000    0.0000    0.0000 C   0  0  0  0  0  0  0  0  0  0  0  0
    0.0000    0.0000    0.0000 C   0  0  0  0  0  0  0  0  0  0  0  0
    0.0000    0.0000    0.0000 C   0  0  0  0  0  0  0  0  0  0  0  0
    0.0000    0.0000    0.0000 C   0  0  0  0  0  0  0  0  0  0  0  0
    0.0000    0.0000    0.0000 C   0  0  0  0  0  0  0  0  0  0  0  0
    0.0000    0.0000    0.0000 C   0  0  0  0  0  0  0  0  0  0  0  0
    0.0000    0.0000    0.0000 C   0  0  0  0  0  0  0  0  0  0  0  0
    0.0000    0.0000    0.0000 C   0  0  0  0  0  0  0  0  0  0  0  0
    0.0000    0.0000    0.0000 O   0  0  0  0  0  0  0  0  0  0  0  0
    0.0000    0.0000    0.0000 N   0  0  0  0  0  0  0  0  0  0  0  0
    0.0000    0.0000    0.0000 C   0  0  0  0  0  0  0  0  0  0  0  0
    0.0000    0.0000    0.0000 C   0  0  0  0  0  0  0  0  0  0  0  0
    0.0000    0.0000    0.0000 C   0  0  0  0  0  0  0  0  0  0  0  0
    0.0000    0.0000    0.0000 C   0  0  0  0  0  0  0  0  0  0  0  0
    0.0000    0.0000    0.0000 N   0  0  0  0  0  0  0  0  0  0  0  0
    0.0000    0.0000    0.0000 C   0  0  0  0  0  0  0  0  0  0  0  0
    0.0000    0.0000    0.0000 C   0  0  0  0  0  0  0  0  0  0  0  0
    0.0000    0.0000    0.0000 C   0  0  0  0  0  0  0  0  0  0  0  0
    0.0000    0.0000    0.0000 C   0  0  0  0  0  0  0  0  0  0  0  0
    0.0000    0.0000    0.0000 N   0  0  0  0  0  0  0  0  0  0  0  0
    0.0000    0.0000    0.0000 C   0  0  0  0  0  0  0  0  0  0  0  0
    0.0000    0.0000    0.0000 C   0  0  0  0  0  0  0  0  0  0  0  0
    0.0000    0.0000    0.0000 C   0  0  0  0  0  0  0  0  0  0  0  0
    0.0000    0.0000    0.0000 C   0  0  0  0  0  0  0  0  0  0  0  0
  1  2  1  0
  2  3  1  0
  3  4  1  0
  4  5  1  0
  5  6  1  0
  6  7  1  0
  7  8  1  0
  8  9  1  0
  9 10  1  0
 10 11  2  0
 11 12  1  0
 12 13  2  0
 13 14  1  0
 14 15  1  0
 15 16  1  0
 16 17  2  0
 17 18  1  0
 18 19  2  0
 19 20  1  0
 20 21  2  0
 21 22  1  0
 22 23  2  0
 22 24  1  0
 24 25  1  0
 25 26  2  0
 26 27  1  0
 27 28  2  0
 28 29  1  0
 29 30  2  0
 30 31  1  0
 30 32  1  0
 32 33  2  0
 33 34  1  0
 33 35  1  0
 35 36  2  0
 13 37  1  0
 37 38  2  0
 38 10  1  0
 21 16  1  0
 36 25  1  0
 35 28  1  0
M  END
>  <pIC50>  (672) 
5.7

>  <ChEMBL_ID>  (672) 
CHEMBL1762401

>  <document_journal>  (672) 
Eur. J. Med. Chem.

>  <bao_endpoint>  (672) 
BAO_0000190

>  <potential_duplicate>  (672) 
False

>  <uo_units>  (672) 
UO_0000065

>  <canonical_smiles>  (672) 
CCCCCCCNCc1ccc(OCc2ccccc2C(=O)Nc3ccc4nc(C)cc(N)c4c3)cc1

>  <parent_molecule_chembl_id>  (672) 
CHEMBL1762401

>  <assay_type>  (672) 
B

>  <src_id>  (672) 
1

>  <ligand_efficiency>  (672) 
{u'le': u'0.21', u'bei': u'11.17', u'sei': u'6.39', u'lle': u'-0.44'}

>  <standard_flag>  (672) 
True

>  <molecule_chembl_id>  (672) 
CHEMBL1762401

>  <target_organism>  (672) 
Homo sapiens

>  <standard_units>  (672) 
nM

>  <record_id>  (672) 
1414872

>  <document_chembl_id>  (672) 
CHEMBL1759965

>  <bao_format>  (672) 
BAO_0000219

>  <data_validity_description>  (672) 
None

>  <activity_id>  (672) 
6152930

>  <standard_type>  (672) 
IC50

>  <target_chembl_id>  (672) 
CHEMBL233

>  <data_validity_comment>  (672) 
None

>  <published_value>  (672) 
1977

>  <document_year>  (672) 
2011

>  <target_pref_name>  (672) 
Mu opioid receptor

>  <assay_chembl_id>  (672) 
CHEMBL1764074

>  <standard_relation>  (672) 
=

>  <assay_description>  (672) 
Displacement of [3H]-naltrindole from human mu opioid receptor expressed in CHO cells after 2 hrs by scintillation counting

>  <published_relation>  (672) 
=

>  <standard_value>  (672) 
1977

>  <qudt_units>  (672) 
http://www.openphacts.org/units/Nanomolar

>  <target_tax_id>  (672) 
9606

>  <bao_label>  (672) 
cell-based format

>  <published_units>  (672) 
nM

>  <pchembl_value>  (672) 
5.7

>  <published_type>  (672) 
IC50

>  <activity_comment>  (672) 
None

$$$$

     RDKit          

 39 42  0  0  0  0  0  0  0  0999 V2000
    0.0000    0.0000    0.0000 C   0  0  0  0  0  0  0  0  0  0  0  0
    0.0000    0.0000    0.0000 C   0  0  0  0  0  0  0  0  0  0  0  0
    0.0000    0.0000    0.0000 C   0  0  0  0  0  0  0  0  0  0  0  0
    0.0000    0.0000    0.0000 C   0  0  0  0  0  0  0  0  0  0  0  0
    0.0000    0.0000    0.0000 C   0  0  0  0  0  0  0  0  0  0  0  0
    0.0000    0.0000    0.0000 C   0  0  0  0  0  0  0  0  0  0  0  0
    0.0000    0.0000    0.0000 C   0  0  0  0  0  0  0  0  0  0  0  0
    0.0000    0.0000    0.0000 C   0  0  0  0  0  0  0  0  0  0  0  0
    0.0000    0.0000    0.0000 N   0  0  0  0  0  0  0  0  0  0  0  0
    0.0000    0.0000    0.0000 C   0  0  0  0  0  0  0  0  0  0  0  0
    0.0000    0.0000    0.0000 C   0  0  0  0  0  0  0  0  0  0  0  0
    0.0000    0.0000    0.0000 C   0  0  0  0  0  0  0  0  0  0  0  0
    0.0000    0.0000    0.0000 C   0  0  0  0  0  0  0  0  0  0  0  0
    0.0000    0.0000    0.0000 C   0  0  0  0  0  0  0  0  0  0  0  0
    0.0000    0.0000    0.0000 O   0  0  0  0  0  0  0  0  0  0  0  0
    0.0000    0.0000    0.0000 C   0  0  0  0  0  0  0  0  0  0  0  0
    0.0000    0.0000    0.0000 C   0  0  0  0  0  0  0  0  0  0  0  0
    0.0000    0.0000    0.0000 C   0  0  0  0  0  0  0  0  0  0  0  0
    0.0000    0.0000    0.0000 C   0  0  0  0  0  0  0  0  0  0  0  0
    0.0000    0.0000    0.0000 C   0  0  0  0  0  0  0  0  0  0  0  0
    0.0000    0.0000    0.0000 C   0  0  0  0  0  0  0  0  0  0  0  0
    0.0000    0.0000    0.0000 C   0  0  0  0  0  0  0  0  0  0  0  0
    0.0000    0.0000    0.0000 C   0  0  0  0  0  0  0  0  0  0  0  0
    0.0000    0.0000    0.0000 O   0  0  0  0  0  0  0  0  0  0  0  0
    0.0000    0.0000    0.0000 N   0  0  0  0  0  0  0  0  0  0  0  0
    0.0000    0.0000    0.0000 C   0  0  0  0  0  0  0  0  0  0  0  0
    0.0000    0.0000    0.0000 C   0  0  0  0  0  0  0  0  0  0  0  0
    0.0000    0.0000    0.0000 C   0  0  0  0  0  0  0  0  0  0  0  0
    0.0000    0.0000    0.0000 C   0  0  0  0  0  0  0  0  0  0  0  0
    0.0000    0.0000    0.0000 N   0  0  0  0  0  0  0  0  0  0  0  0
    0.0000    0.0000    0.0000 C   0  0  0  0  0  0  0  0  0  0  0  0
    0.0000    0.0000    0.0000 C   0  0  0  0  0  0  0  0  0  0  0  0
    0.0000    0.0000    0.0000 C   0  0  0  0  0  0  0  0  0  0  0  0
    0.0000    0.0000    0.0000 C   0  0  0  0  0  0  0  0  0  0  0  0
    0.0000    0.0000    0.0000 N   0  0  0  0  0  0  0  0  0  0  0  0
    0.0000    0.0000    0.0000 C   0  0  0  0  0  0  0  0  0  0  0  0
    0.0000    0.0000    0.0000 C   0  0  0  0  0  0  0  0  0  0  0  0
    0.0000    0.0000    0.0000 C   0  0  0  0  0  0  0  0  0  0  0  0
    0.0000    0.0000    0.0000 C   0  0  0  0  0  0  0  0  0  0  0  0
  1  2  1  0
  2  3  1  0
  3  4  1  0
  4  5  1  0
  5  6  1  0
  6  7  1  0
  7  8  1  0
  8  9  1  0
  9 10  1  0
 10 11  1  0
 11 12  2  0
 12 13  1  0
 13 14  2  0
 14 15  1  0
 15 16  1  0
 16 17  1  0
 17 18  2  0
 18 19  1  0
 19 20  2  0
 20 21  1  0
 21 22  2  0
 22 23  1  0
 23 24  2  0
 23 25  1  0
 25 26  1  0
 26 27  2  0
 27 28  1  0
 28 29  2  0
 29 30  1  0
 30 31  2  0
 31 32  1  0
 31 33  1  0
 33 34  2  0
 34 35  1  0
 34 36  1  0
 36 37  2  0
 14 38  1  0
 38 39  2  0
 39 11  1  0
 22 17  1  0
 37 26  1  0
 36 29  1  0
M  END
>  <pIC50>  (673) 
5.36

>  <ChEMBL_ID>  (673) 
CHEMBL1762402

>  <document_journal>  (673) 
Eur. J. Med. Chem.

>  <bao_endpoint>  (673) 
BAO_0000190

>  <potential_duplicate>  (673) 
False

>  <uo_units>  (673) 
UO_0000065

>  <canonical_smiles>  (673) 
CCCCCCCCNCc1ccc(OCc2ccccc2C(=O)Nc3ccc4nc(C)cc(N)c4c3)cc1

>  <parent_molecule_chembl_id>  (673) 
CHEMBL1762402

>  <assay_type>  (673) 
B

>  <src_id>  (673) 
1

>  <ligand_efficiency>  (673) 
{u'le': u'0.19', u'bei': u'10.22', u'sei': u'6.01', u'lle': u'-1.24'}

>  <standard_flag>  (673) 
True

>  <molecule_chembl_id>  (673) 
CHEMBL1762402

>  <target_organism>  (673) 
Homo sapiens

>  <standard_units>  (673) 
nM

>  <record_id>  (673) 
1414873

>  <document_chembl_id>  (673) 
CHEMBL1759965

>  <bao_format>  (673) 
BAO_0000219

>  <data_validity_description>  (673) 
None

>  <activity_id>  (673) 
6152931

>  <standard_type>  (673) 
IC50

>  <target_chembl_id>  (673) 
CHEMBL233

>  <data_validity_comment>  (673) 
None

>  <published_value>  (673) 
4339

>  <document_year>  (673) 
2011

>  <target_pref_name>  (673) 
Mu opioid receptor

>  <assay_chembl_id>  (673) 
CHEMBL1764074

>  <standard_relation>  (673) 
=

>  <assay_description>  (673) 
Displacement of [3H]-naltrindole from human mu opioid receptor expressed in CHO cells after 2 hrs by scintillation counting

>  <published_relation>  (673) 
=

>  <standard_value>  (673) 
4339

>  <qudt_units>  (673) 
http://www.openphacts.org/units/Nanomolar

>  <target_tax_id>  (673) 
9606

>  <bao_label>  (673) 
cell-based format

>  <published_units>  (673) 
nM

>  <pchembl_value>  (673) 
5.36

>  <published_type>  (673) 
IC50

>  <activity_comment>  (673) 
None

$$$$

     RDKit          

 40 43  0  0  0  0  0  0  0  0999 V2000
    0.0000    0.0000    0.0000 C   0  0  0  0  0  0  0  0  0  0  0  0
    0.0000    0.0000    0.0000 C   0  0  0  0  0  0  0  0  0  0  0  0
    0.0000    0.0000    0.0000 C   0  0  0  0  0  0  0  0  0  0  0  0
    0.0000    0.0000    0.0000 C   0  0  0  0  0  0  0  0  0  0  0  0
    0.0000    0.0000    0.0000 C   0  0  0  0  0  0  0  0  0  0  0  0
    0.0000    0.0000    0.0000 C   0  0  0  0  0  0  0  0  0  0  0  0
    0.0000    0.0000    0.0000 C   0  0  0  0  0  0  0  0  0  0  0  0
    0.0000    0.0000    0.0000 C   0  0  0  0  0  0  0  0  0  0  0  0
    0.0000    0.0000    0.0000 C   0  0  0  0  0  0  0  0  0  0  0  0
    0.0000    0.0000    0.0000 N   0  0  0  0  0  0  0  0  0  0  0  0
    0.0000    0.0000    0.0000 C   0  0  0  0  0  0  0  0  0  0  0  0
    0.0000    0.0000    0.0000 C   0  0  0  0  0  0  0  0  0  0  0  0
    0.0000    0.0000    0.0000 C   0  0  0  0  0  0  0  0  0  0  0  0
    0.0000    0.0000    0.0000 C   0  0  0  0  0  0  0  0  0  0  0  0
    0.0000    0.0000    0.0000 C   0  0  0  0  0  0  0  0  0  0  0  0
    0.0000    0.0000    0.0000 O   0  0  0  0  0  0  0  0  0  0  0  0
    0.0000    0.0000    0.0000 C   0  0  0  0  0  0  0  0  0  0  0  0
    0.0000    0.0000    0.0000 C   0  0  0  0  0  0  0  0  0  0  0  0
    0.0000    0.0000    0.0000 C   0  0  0  0  0  0  0  0  0  0  0  0
    0.0000    0.0000    0.0000 C   0  0  0  0  0  0  0  0  0  0  0  0
    0.0000    0.0000    0.0000 C   0  0  0  0  0  0  0  0  0  0  0  0
    0.0000    0.0000    0.0000 C   0  0  0  0  0  0  0  0  0  0  0  0
    0.0000    0.0000    0.0000 C   0  0  0  0  0  0  0  0  0  0  0  0
    0.0000    0.0000    0.0000 C   0  0  0  0  0  0  0  0  0  0  0  0
    0.0000    0.0000    0.0000 O   0  0  0  0  0  0  0  0  0  0  0  0
    0.0000    0.0000    0.0000 N   0  0  0  0  0  0  0  0  0  0  0  0
    0.0000    0.0000    0.0000 C   0  0  0  0  0  0  0  0  0  0  0  0
    0.0000    0.0000    0.0000 C   0  0  0  0  0  0  0  0  0  0  0  0
    0.0000    0.0000    0.0000 C   0  0  0  0  0  0  0  0  0  0  0  0
    0.0000    0.0000    0.0000 C   0  0  0  0  0  0  0  0  0  0  0  0
    0.0000    0.0000    0.0000 N   0  0  0  0  0  0  0  0  0  0  0  0
    0.0000    0.0000    0.0000 C   0  0  0  0  0  0  0  0  0  0  0  0
    0.0000    0.0000    0.0000 C   0  0  0  0  0  0  0  0  0  0  0  0
    0.0000    0.0000    0.0000 C   0  0  0  0  0  0  0  0  0  0  0  0
    0.0000    0.0000    0.0000 C   0  0  0  0  0  0  0  0  0  0  0  0
    0.0000    0.0000    0.0000 N   0  0  0  0  0  0  0  0  0  0  0  0
    0.0000    0.0000    0.0000 C   0  0  0  0  0  0  0  0  0  0  0  0
    0.0000    0.0000    0.0000 C   0  0  0  0  0  0  0  0  0  0  0  0
    0.0000    0.0000    0.0000 C   0  0  0  0  0  0  0  0  0  0  0  0
    0.0000    0.0000    0.0000 C   0  0  0  0  0  0  0  0  0  0  0  0
  1  2  1  0
  2  3  1  0
  3  4  1  0
  4  5  1  0
  5  6  1  0
  6  7  1  0
  7  8  1  0
  8  9  1  0
  9 10  1  0
 10 11  1  0
 11 12  1  0
 12 13  2  0
 13 14  1  0
 14 15  2  0
 15 16  1  0
 16 17  1  0
 17 18  1  0
 18 19  2  0
 19 20  1  0
 20 21  2  0
 21 22  1  0
 22 23  2  0
 23 24  1  0
 24 25  2  0
 24 26  1  0
 26 27  1  0
 27 28  2  0
 28 29  1  0
 29 30  2  0
 30 31  1  0
 31 32  2  0
 32 33  1  0
 32 34  1  0
 34 35  2  0
 35 36  1  0
 35 37  1  0
 37 38  2  0
 15 39  1  0
 39 40  2  0
 40 12  1  0
 23 18  1  0
 38 27  1  0
 37 30  1  0
M  END
>  <pIC50>  (674) 
5.66

>  <ChEMBL_ID>  (674) 
CHEMBL1762403

>  <document_journal>  (674) 
Eur. J. Med. Chem.

>  <bao_endpoint>  (674) 
BAO_0000190

>  <potential_duplicate>  (674) 
False

>  <uo_units>  (674) 
UO_0000065

>  <canonical_smiles>  (674) 
CCCCCCCCCNCc1ccc(OCc2ccccc2C(=O)Nc3ccc4nc(C)cc(N)c4c3)cc1

>  <parent_molecule_chembl_id>  (674) 
CHEMBL1762403

>  <assay_type>  (674) 
B

>  <src_id>  (674) 
1

>  <ligand_efficiency>  (674) 
{u'le': u'0.19', u'bei': u'10.51', u'sei': u'6.34', u'lle': u'-1.39'}

>  <standard_flag>  (674) 
True

>  <molecule_chembl_id>  (674) 
CHEMBL1762403

>  <target_organism>  (674) 
Homo sapiens

>  <standard_units>  (674) 
nM

>  <record_id>  (674) 
1414874

>  <document_chembl_id>  (674) 
CHEMBL1759965

>  <bao_format>  (674) 
BAO_0000219

>  <data_validity_description>  (674) 
None

>  <activity_id>  (674) 
6152932

>  <standard_type>  (674) 
IC50

>  <target_chembl_id>  (674) 
CHEMBL233

>  <data_validity_comment>  (674) 
None

>  <published_value>  (674) 
2171

>  <document_year>  (674) 
2011

>  <target_pref_name>  (674) 
Mu opioid receptor

>  <assay_chembl_id>  (674) 
CHEMBL1764074

>  <standard_relation>  (674) 
=

>  <assay_description>  (674) 
Displacement of [3H]-naltrindole from human mu opioid receptor expressed in CHO cells after 2 hrs by scintillation counting

>  <published_relation>  (674) 
=

>  <standard_value>  (674) 
2171

>  <qudt_units>  (674) 
http://www.openphacts.org/units/Nanomolar

>  <target_tax_id>  (674) 
9606

>  <bao_label>  (674) 
cell-based format

>  <published_units>  (674) 
nM

>  <pchembl_value>  (674) 
5.66

>  <published_type>  (674) 
IC50

>  <activity_comment>  (674) 
None

$$$$

     RDKit          

 41 44  0  0  0  0  0  0  0  0999 V2000
    0.0000    0.0000    0.0000 C   0  0  0  0  0  0  0  0  0  0  0  0
    0.0000    0.0000    0.0000 C   0  0  0  0  0  0  0  0  0  0  0  0
    0.0000    0.0000    0.0000 C   0  0  0  0  0  0  0  0  0  0  0  0
    0.0000    0.0000    0.0000 C   0  0  0  0  0  0  0  0  0  0  0  0
    0.0000    0.0000    0.0000 C   0  0  0  0  0  0  0  0  0  0  0  0
    0.0000    0.0000    0.0000 C   0  0  0  0  0  0  0  0  0  0  0  0
    0.0000    0.0000    0.0000 C   0  0  0  0  0  0  0  0  0  0  0  0
    0.0000    0.0000    0.0000 C   0  0  0  0  0  0  0  0  0  0  0  0
    0.0000    0.0000    0.0000 C   0  0  0  0  0  0  0  0  0  0  0  0
    0.0000    0.0000    0.0000 C   0  0  0  0  0  0  0  0  0  0  0  0
    0.0000    0.0000    0.0000 N   0  0  0  0  0  0  0  0  0  0  0  0
    0.0000    0.0000    0.0000 C   0  0  0  0  0  0  0  0  0  0  0  0
    0.0000    0.0000    0.0000 C   0  0  0  0  0  0  0  0  0  0  0  0
    0.0000    0.0000    0.0000 C   0  0  0  0  0  0  0  0  0  0  0  0
    0.0000    0.0000    0.0000 C   0  0  0  0  0  0  0  0  0  0  0  0
    0.0000    0.0000    0.0000 C   0  0  0  0  0  0  0  0  0  0  0  0
    0.0000    0.0000    0.0000 O   0  0  0  0  0  0  0  0  0  0  0  0
    0.0000    0.0000    0.0000 C   0  0  0  0  0  0  0  0  0  0  0  0
    0.0000    0.0000    0.0000 C   0  0  0  0  0  0  0  0  0  0  0  0
    0.0000    0.0000    0.0000 C   0  0  0  0  0  0  0  0  0  0  0  0
    0.0000    0.0000    0.0000 C   0  0  0  0  0  0  0  0  0  0  0  0
    0.0000    0.0000    0.0000 C   0  0  0  0  0  0  0  0  0  0  0  0
    0.0000    0.0000    0.0000 C   0  0  0  0  0  0  0  0  0  0  0  0
    0.0000    0.0000    0.0000 C   0  0  0  0  0  0  0  0  0  0  0  0
    0.0000    0.0000    0.0000 C   0  0  0  0  0  0  0  0  0  0  0  0
    0.0000    0.0000    0.0000 O   0  0  0  0  0  0  0  0  0  0  0  0
    0.0000    0.0000    0.0000 N   0  0  0  0  0  0  0  0  0  0  0  0
    0.0000    0.0000    0.0000 C   0  0  0  0  0  0  0  0  0  0  0  0
    0.0000    0.0000    0.0000 C   0  0  0  0  0  0  0  0  0  0  0  0
    0.0000    0.0000    0.0000 C   0  0  0  0  0  0  0  0  0  0  0  0
    0.0000    0.0000    0.0000 C   0  0  0  0  0  0  0  0  0  0  0  0
    0.0000    0.0000    0.0000 N   0  0  0  0  0  0  0  0  0  0  0  0
    0.0000    0.0000    0.0000 C   0  0  0  0  0  0  0  0  0  0  0  0
    0.0000    0.0000    0.0000 C   0  0  0  0  0  0  0  0  0  0  0  0
    0.0000    0.0000    0.0000 C   0  0  0  0  0  0  0  0  0  0  0  0
    0.0000    0.0000    0.0000 C   0  0  0  0  0  0  0  0  0  0  0  0
    0.0000    0.0000    0.0000 N   0  0  0  0  0  0  0  0  0  0  0  0
    0.0000    0.0000    0.0000 C   0  0  0  0  0  0  0  0  0  0  0  0
    0.0000    0.0000    0.0000 C   0  0  0  0  0  0  0  0  0  0  0  0
    0.0000    0.0000    0.0000 C   0  0  0  0  0  0  0  0  0  0  0  0
    0.0000    0.0000    0.0000 C   0  0  0  0  0  0  0  0  0  0  0  0
  1  2  1  0
  2  3  1  0
  3  4  1  0
  4  5  1  0
  5  6  1  0
  6  7  1  0
  7  8  1  0
  8  9  1  0
  9 10  1  0
 10 11  1  0
 11 12  1  0
 12 13  1  0
 13 14  2  0
 14 15  1  0
 15 16  2  0
 16 17  1  0
 17 18  1  0
 18 19  1  0
 19 20  2  0
 20 21  1  0
 21 22  2  0
 22 23  1  0
 23 24  2  0
 24 25  1  0
 25 26  2  0
 25 27  1  0
 27 28  1  0
 28 29  2  0
 29 30  1  0
 30 31  2  0
 31 32  1  0
 32 33  2  0
 33 34  1  0
 33 35  1  0
 35 36  2  0
 36 37  1  0
 36 38  1  0
 38 39  2  0
 16 40  1  0
 40 41  2  0
 41 13  1  0
 24 19  1  0
 39 28  1  0
 38 31  1  0
M  END
>  <pIC50>  (675) 
5.56

>  <ChEMBL_ID>  (675) 
CHEMBL1762404

>  <document_journal>  (675) 
Eur. J. Med. Chem.

>  <bao_endpoint>  (675) 
BAO_0000190

>  <potential_duplicate>  (675) 
False

>  <uo_units>  (675) 
UO_0000065

>  <canonical_smiles>  (675) 
CCCCCCCCCCNCc1ccc(OCc2ccccc2C(=O)Nc3ccc4nc(C)cc(N)c4c3)cc1

>  <parent_molecule_chembl_id>  (675) 
CHEMBL1762404

>  <assay_type>  (675) 
B

>  <src_id>  (675) 
1

>  <ligand_efficiency>  (675) 
{u'le': u'0.19', u'bei': u'10.06', u'sei': u'6.23', u'lle': u'-1.95'}

>  <standard_flag>  (675) 
True

>  <molecule_chembl_id>  (675) 
CHEMBL1762404

>  <target_organism>  (675) 
Homo sapiens

>  <standard_units>  (675) 
nM

>  <record_id>  (675) 
1414875

>  <document_chembl_id>  (675) 
CHEMBL1759965

>  <bao_format>  (675) 
BAO_0000219

>  <data_validity_description>  (675) 
None

>  <activity_id>  (675) 
6152933

>  <standard_type>  (675) 
IC50

>  <target_chembl_id>  (675) 
CHEMBL233

>  <data_validity_comment>  (675) 
None

>  <published_value>  (675) 
2755

>  <document_year>  (675) 
2011

>  <target_pref_name>  (675) 
Mu opioid receptor

>  <assay_chembl_id>  (675) 
CHEMBL1764074

>  <standard_relation>  (675) 
=

>  <assay_description>  (675) 
Displacement of [3H]-naltrindole from human mu opioid receptor expressed in CHO cells after 2 hrs by scintillation counting

>  <published_relation>  (675) 
=

>  <standard_value>  (675) 
2755

>  <qudt_units>  (675) 
http://www.openphacts.org/units/Nanomolar

>  <target_tax_id>  (675) 
9606

>  <bao_label>  (675) 
cell-based format

>  <published_units>  (675) 
nM

>  <pchembl_value>  (675) 
5.56

>  <published_type>  (675) 
IC50

>  <activity_comment>  (675) 
None

$$$$

     RDKit          

 35 38  0  0  0  0  0  0  0  0999 V2000
    0.0000    0.0000    0.0000 C   0  0  0  0  0  0  0  0  0  0  0  0
    0.0000    0.0000    0.0000 C   0  0  0  0  0  0  0  0  0  0  0  0
    0.0000    0.0000    0.0000 C   0  0  0  0  0  0  0  0  0  0  0  0
    0.0000    0.0000    0.0000 C   0  0  0  0  0  0  0  0  0  0  0  0
    0.0000    0.0000    0.0000 N   0  0  0  0  0  0  0  0  0  0  0  0
    0.0000    0.0000    0.0000 C   0  0  0  0  0  0  0  0  0  0  0  0
    0.0000    0.0000    0.0000 C   0  0  0  0  0  0  0  0  0  0  0  0
    0.0000    0.0000    0.0000 C   0  0  0  0  0  0  0  0  0  0  0  0
    0.0000    0.0000    0.0000 N   0  0  0  0  0  0  0  0  0  0  0  0
    0.0000    0.0000    0.0000 C   0  0  0  0  0  0  0  0  0  0  0  0
    0.0000    0.0000    0.0000 O   0  0  0  0  0  0  0  0  0  0  0  0
    0.0000    0.0000    0.0000 C   0  0  0  0  0  0  0  0  0  0  0  0
    0.0000    0.0000    0.0000 C   0  0  0  0  0  0  0  0  0  0  0  0
    0.0000    0.0000    0.0000 C   0  0  0  0  0  0  0  0  0  0  0  0
    0.0000    0.0000    0.0000 C   0  0  0  0  0  0  0  0  0  0  0  0
    0.0000    0.0000    0.0000 C   0  0  0  0  0  0  0  0  0  0  0  0
    0.0000    0.0000    0.0000 C   0  0  0  0  0  0  0  0  0  0  0  0
    0.0000    0.0000    0.0000 C   0  0  0  0  0  0  0  0  0  0  0  0
    0.0000    0.0000    0.0000 O   0  0  0  0  0  0  0  0  0  0  0  0
    0.0000    0.0000    0.0000 C   0  0  0  0  0  0  0  0  0  0  0  0
    0.0000    0.0000    0.0000 C   0  0  0  0  0  0  0  0  0  0  0  0
    0.0000    0.0000    0.0000 C   0  0  0  0  0  0  0  0  0  0  0  0
    0.0000    0.0000    0.0000 C   0  0  0  0  0  0  0  0  0  0  0  0
    0.0000    0.0000    0.0000 C   0  0  0  0  0  0  0  0  0  0  0  0
    0.0000    0.0000    0.0000 N   0  0  0  0  0  0  0  0  0  0  0  0
    0.0000    0.0000    0.0000 C   0  0  0  0  0  0  0  0  0  0  0  0
    0.0000    0.0000    0.0000 C   0  0  0  0  0  0  0  0  0  0  0  0
    0.0000    0.0000    0.0000 C   0  0  0  0  0  0  0  0  0  0  0  0
    0.0000    0.0000    0.0000 N   0  0  0  0  0  0  0  0  0  0  0  0
    0.0000    0.0000    0.0000 C   0  0  0  0  0  0  0  0  0  0  0  0
    0.0000    0.0000    0.0000 C   0  0  0  0  0  0  0  0  0  0  0  0
    0.0000    0.0000    0.0000 C   0  0  0  0  0  0  0  0  0  0  0  0
    0.0000    0.0000    0.0000 C   0  0  0  0  0  0  0  0  0  0  0  0
    0.0000    0.0000    0.0000 C   0  0  0  0  0  0  0  0  0  0  0  0
    0.0000    0.0000    0.0000 N   0  0  0  0  0  0  0  0  0  0  0  0
  1  2  1  0
  2  3  2  0
  3  4  1  0
  4  5  1  0
  4  6  2  0
  6  7  1  0
  7  8  2  0
  8  9  1  0
  9 10  1  0
 10 11  2  0
 10 12  1  0
 12 13  2  0
 13 14  1  0
 14 15  2  0
 15 16  1  0
 16 17  2  0
 17 18  1  0
 18 19  1  0
 19 20  1  0
 20 21  2  0
 21 22  1  0
 22 23  2  0
 23 24  1  0
 24 25  1  0
 25 26  1  0
 26 27  1  0
 27 28  1  0
 28 29  1  0
 23 30  1  0
 30 31  2  0
  8 32  1  0
 32 33  2  0
 33 34  1  0
 34 35  2  0
 35  2  1  0
 34  6  1  0
 17 12  1  0
 31 20  1  0
M  END
>  <pIC50>  (676) 
5.85

>  <ChEMBL_ID>  (676) 
CHEMBL1762405

>  <document_journal>  (676) 
Eur. J. Med. Chem.

>  <bao_endpoint>  (676) 
BAO_0000190

>  <potential_duplicate>  (676) 
False

>  <uo_units>  (676) 
UO_0000065

>  <canonical_smiles>  (676) 
Cc1cc(N)c2cc(NC(=O)c3ccccc3COc4ccc(CNCCCN)cc4)ccc2n1

>  <parent_molecule_chembl_id>  (676) 
CHEMBL1762405

>  <assay_type>  (676) 
B

>  <src_id>  (676) 
1

>  <ligand_efficiency>  (676) 
{u'le': u'0.23', u'bei': u'12.46', u'sei': u'5.08', u'lle': u'3.17'}

>  <standard_flag>  (676) 
True

>  <molecule_chembl_id>  (676) 
CHEMBL1762405

>  <target_organism>  (676) 
Homo sapiens

>  <standard_units>  (676) 
nM

>  <record_id>  (676) 
1414876

>  <document_chembl_id>  (676) 
CHEMBL1759965

>  <bao_format>  (676) 
BAO_0000219

>  <data_validity_description>  (676) 
None

>  <activity_id>  (676) 
6152934

>  <standard_type>  (676) 
IC50

>  <target_chembl_id>  (676) 
CHEMBL233

>  <data_validity_comment>  (676) 
None

>  <published_value>  (676) 
1402

>  <document_year>  (676) 
2011

>  <target_pref_name>  (676) 
Mu opioid receptor

>  <assay_chembl_id>  (676) 
CHEMBL1764074

>  <standard_relation>  (676) 
=

>  <assay_description>  (676) 
Displacement of [3H]-naltrindole from human mu opioid receptor expressed in CHO cells after 2 hrs by scintillation counting

>  <published_relation>  (676) 
=

>  <standard_value>  (676) 
1402

>  <qudt_units>  (676) 
http://www.openphacts.org/units/Nanomolar

>  <target_tax_id>  (676) 
9606

>  <bao_label>  (676) 
cell-based format

>  <published_units>  (676) 
nM

>  <pchembl_value>  (676) 
5.85

>  <published_type>  (676) 
IC50

>  <activity_comment>  (676) 
None

$$$$

     RDKit          

 36 39  0  0  0  0  0  0  0  0999 V2000
    0.0000    0.0000    0.0000 C   0  0  0  0  0  0  0  0  0  0  0  0
    0.0000    0.0000    0.0000 C   0  0  0  0  0  0  0  0  0  0  0  0
    0.0000    0.0000    0.0000 C   0  0  0  0  0  0  0  0  0  0  0  0
    0.0000    0.0000    0.0000 C   0  0  0  0  0  0  0  0  0  0  0  0
    0.0000    0.0000    0.0000 N   0  0  0  0  0  0  0  0  0  0  0  0
    0.0000    0.0000    0.0000 C   0  0  0  0  0  0  0  0  0  0  0  0
    0.0000    0.0000    0.0000 C   0  0  0  0  0  0  0  0  0  0  0  0
    0.0000    0.0000    0.0000 C   0  0  0  0  0  0  0  0  0  0  0  0
    0.0000    0.0000    0.0000 N   0  0  0  0  0  0  0  0  0  0  0  0
    0.0000    0.0000    0.0000 C   0  0  0  0  0  0  0  0  0  0  0  0
    0.0000    0.0000    0.0000 O   0  0  0  0  0  0  0  0  0  0  0  0
    0.0000    0.0000    0.0000 C   0  0  0  0  0  0  0  0  0  0  0  0
    0.0000    0.0000    0.0000 C   0  0  0  0  0  0  0  0  0  0  0  0
    0.0000    0.0000    0.0000 C   0  0  0  0  0  0  0  0  0  0  0  0
    0.0000    0.0000    0.0000 C   0  0  0  0  0  0  0  0  0  0  0  0
    0.0000    0.0000    0.0000 C   0  0  0  0  0  0  0  0  0  0  0  0
    0.0000    0.0000    0.0000 C   0  0  0  0  0  0  0  0  0  0  0  0
    0.0000    0.0000    0.0000 C   0  0  0  0  0  0  0  0  0  0  0  0
    0.0000    0.0000    0.0000 O   0  0  0  0  0  0  0  0  0  0  0  0
    0.0000    0.0000    0.0000 C   0  0  0  0  0  0  0  0  0  0  0  0
    0.0000    0.0000    0.0000 C   0  0  0  0  0  0  0  0  0  0  0  0
    0.0000    0.0000    0.0000 C   0  0  0  0  0  0  0  0  0  0  0  0
    0.0000    0.0000    0.0000 C   0  0  0  0  0  0  0  0  0  0  0  0
    0.0000    0.0000    0.0000 C   0  0  0  0  0  0  0  0  0  0  0  0
    0.0000    0.0000    0.0000 N   0  0  0  0  0  0  0  0  0  0  0  0
    0.0000    0.0000    0.0000 C   0  0  0  0  0  0  0  0  0  0  0  0
    0.0000    0.0000    0.0000 C   0  0  0  0  0  0  0  0  0  0  0  0
    0.0000    0.0000    0.0000 C   0  0  0  0  0  0  0  0  0  0  0  0
    0.0000    0.0000    0.0000 C   0  0  0  0  0  0  0  0  0  0  0  0
    0.0000    0.0000    0.0000 N   0  0  0  0  0  0  0  0  0  0  0  0
    0.0000    0.0000    0.0000 C   0  0  0  0  0  0  0  0  0  0  0  0
    0.0000    0.0000    0.0000 C   0  0  0  0  0  0  0  0  0  0  0  0
    0.0000    0.0000    0.0000 C   0  0  0  0  0  0  0  0  0  0  0  0
    0.0000    0.0000    0.0000 C   0  0  0  0  0  0  0  0  0  0  0  0
    0.0000    0.0000    0.0000 C   0  0  0  0  0  0  0  0  0  0  0  0
    0.0000    0.0000    0.0000 N   0  0  0  0  0  0  0  0  0  0  0  0
  1  2  1  0
  2  3  2  0
  3  4  1  0
  4  5  1  0
  4  6  2  0
  6  7  1  0
  7  8  2  0
  8  9  1  0
  9 10  1  0
 10 11  2  0
 10 12  1  0
 12 13  2  0
 13 14  1  0
 14 15  2  0
 15 16  1  0
 16 17  2  0
 17 18  1  0
 18 19  1  0
 19 20  1  0
 20 21  2  0
 21 22  1  0
 22 23  2  0
 23 24  1  0
 24 25  1  0
 25 26  1  0
 26 27  1  0
 27 28  1  0
 28 29  1  0
 29 30  1  0
 23 31  1  0
 31 32  2  0
  8 33  1  0
 33 34  2  0
 34 35  1  0
 35 36  2  0
 36  2  1  0
 35  6  1  0
 17 12  1  0
 32 20  1  0
M  END
>  <pIC50>  (677) 
5.27

>  <ChEMBL_ID>  (677) 
CHEMBL1762406

>  <document_journal>  (677) 
Eur. J. Med. Chem.

>  <bao_endpoint>  (677) 
BAO_0000190

>  <potential_duplicate>  (677) 
False

>  <uo_units>  (677) 
UO_0000065

>  <canonical_smiles>  (677) 
Cc1cc(N)c2cc(NC(=O)c3ccccc3COc4ccc(CNCCCCN)cc4)ccc2n1

>  <parent_molecule_chembl_id>  (677) 
CHEMBL1762406

>  <assay_type>  (677) 
B

>  <src_id>  (677) 
1

>  <ligand_efficiency>  (677) 
{u'le': u'0.2', u'bei': u'10.9', u'sei': u'4.57', u'lle': u'2.01'}

>  <standard_flag>  (677) 
True

>  <molecule_chembl_id>  (677) 
CHEMBL1762406

>  <target_organism>  (677) 
Homo sapiens

>  <standard_units>  (677) 
nM

>  <record_id>  (677) 
1414877

>  <document_chembl_id>  (677) 
CHEMBL1759965

>  <bao_format>  (677) 
BAO_0000219

>  <data_validity_description>  (677) 
None

>  <activity_id>  (677) 
6152935

>  <standard_type>  (677) 
IC50

>  <target_chembl_id>  (677) 
CHEMBL233

>  <data_validity_comment>  (677) 
None

>  <published_value>  (677) 
5333

>  <document_year>  (677) 
2011

>  <target_pref_name>  (677) 
Mu opioid receptor

>  <assay_chembl_id>  (677) 
CHEMBL1764074

>  <standard_relation>  (677) 
=

>  <assay_description>  (677) 
Displacement of [3H]-naltrindole from human mu opioid receptor expressed in CHO cells after 2 hrs by scintillation counting

>  <published_relation>  (677) 
=

>  <standard_value>  (677) 
5333

>  <qudt_units>  (677) 
http://www.openphacts.org/units/Nanomolar

>  <target_tax_id>  (677) 
9606

>  <bao_label>  (677) 
cell-based format

>  <published_units>  (677) 
nM

>  <pchembl_value>  (677) 
5.27

>  <published_type>  (677) 
IC50

>  <activity_comment>  (677) 
None

$$$$

     RDKit          

 37 40  0  0  0  0  0  0  0  0999 V2000
    0.0000    0.0000    0.0000 C   0  0  0  0  0  0  0  0  0  0  0  0
    0.0000    0.0000    0.0000 C   0  0  0  0  0  0  0  0  0  0  0  0
    0.0000    0.0000    0.0000 C   0  0  0  0  0  0  0  0  0  0  0  0
    0.0000    0.0000    0.0000 C   0  0  0  0  0  0  0  0  0  0  0  0
    0.0000    0.0000    0.0000 N   0  0  0  0  0  0  0  0  0  0  0  0
    0.0000    0.0000    0.0000 C   0  0  0  0  0  0  0  0  0  0  0  0
    0.0000    0.0000    0.0000 C   0  0  0  0  0  0  0  0  0  0  0  0
    0.0000    0.0000    0.0000 C   0  0  0  0  0  0  0  0  0  0  0  0
    0.0000    0.0000    0.0000 N   0  0  0  0  0  0  0  0  0  0  0  0
    0.0000    0.0000    0.0000 C   0  0  0  0  0  0  0  0  0  0  0  0
    0.0000    0.0000    0.0000 O   0  0  0  0  0  0  0  0  0  0  0  0
    0.0000    0.0000    0.0000 C   0  0  0  0  0  0  0  0  0  0  0  0
    0.0000    0.0000    0.0000 C   0  0  0  0  0  0  0  0  0  0  0  0
    0.0000    0.0000    0.0000 C   0  0  0  0  0  0  0  0  0  0  0  0
    0.0000    0.0000    0.0000 C   0  0  0  0  0  0  0  0  0  0  0  0
    0.0000    0.0000    0.0000 C   0  0  0  0  0  0  0  0  0  0  0  0
    0.0000    0.0000    0.0000 C   0  0  0  0  0  0  0  0  0  0  0  0
    0.0000    0.0000    0.0000 C   0  0  0  0  0  0  0  0  0  0  0  0
    0.0000    0.0000    0.0000 O   0  0  0  0  0  0  0  0  0  0  0  0
    0.0000    0.0000    0.0000 C   0  0  0  0  0  0  0  0  0  0  0  0
    0.0000    0.0000    0.0000 C   0  0  0  0  0  0  0  0  0  0  0  0
    0.0000    0.0000    0.0000 C   0  0  0  0  0  0  0  0  0  0  0  0
    0.0000    0.0000    0.0000 C   0  0  0  0  0  0  0  0  0  0  0  0
    0.0000    0.0000    0.0000 C   0  0  0  0  0  0  0  0  0  0  0  0
    0.0000    0.0000    0.0000 N   0  0  0  0  0  0  0  0  0  0  0  0
    0.0000    0.0000    0.0000 C   0  0  0  0  0  0  0  0  0  0  0  0
    0.0000    0.0000    0.0000 C   0  0  0  0  0  0  0  0  0  0  0  0
    0.0000    0.0000    0.0000 C   0  0  0  0  0  0  0  0  0  0  0  0
    0.0000    0.0000    0.0000 C   0  0  0  0  0  0  0  0  0  0  0  0
    0.0000    0.0000    0.0000 C   0  0  0  0  0  0  0  0  0  0  0  0
    0.0000    0.0000    0.0000 N   0  0  0  0  0  0  0  0  0  0  0  0
    0.0000    0.0000    0.0000 C   0  0  0  0  0  0  0  0  0  0  0  0
    0.0000    0.0000    0.0000 C   0  0  0  0  0  0  0  0  0  0  0  0
    0.0000    0.0000    0.0000 C   0  0  0  0  0  0  0  0  0  0  0  0
    0.0000    0.0000    0.0000 C   0  0  0  0  0  0  0  0  0  0  0  0
    0.0000    0.0000    0.0000 C   0  0  0  0  0  0  0  0  0  0  0  0
    0.0000    0.0000    0.0000 N   0  0  0  0  0  0  0  0  0  0  0  0
  1  2  1  0
  2  3  2  0
  3  4  1  0
  4  5  1  0
  4  6  2  0
  6  7  1  0
  7  8  2  0
  8  9  1  0
  9 10  1  0
 10 11  2  0
 10 12  1  0
 12 13  2  0
 13 14  1  0
 14 15  2  0
 15 16  1  0
 16 17  2  0
 17 18  1  0
 18 19  1  0
 19 20  1  0
 20 21  2  0
 21 22  1  0
 22 23  2  0
 23 24  1  0
 24 25  1  0
 25 26  1  0
 26 27  1  0
 27 28  1  0
 28 29  1  0
 29 30  1  0
 30 31  1  0
 23 32  1  0
 32 33  2  0
  8 34  1  0
 34 35  2  0
 35 36  1  0
 36 37  2  0
 37  2  1  0
 36  6  1  0
 17 12  1  0
 33 20  1  0
M  END
>  <pIC50>  (678) 
5.31

>  <ChEMBL_ID>  (678) 
CHEMBL1762407

>  <document_journal>  (678) 
Eur. J. Med. Chem.

>  <bao_endpoint>  (678) 
BAO_0000190

>  <potential_duplicate>  (678) 
False

>  <uo_units>  (678) 
UO_0000065

>  <canonical_smiles>  (678) 
Cc1cc(N)c2cc(NC(=O)c3ccccc3COc4ccc(CNCCCCCN)cc4)ccc2n1

>  <parent_molecule_chembl_id>  (678) 
CHEMBL1762407

>  <assay_type>  (678) 
B

>  <src_id>  (678) 
1

>  <ligand_efficiency>  (678) 
{u'le': u'0.2', u'bei': u'10.67', u'sei': u'4.61', u'lle': u'1.6'}

>  <standard_flag>  (678) 
True

>  <molecule_chembl_id>  (678) 
CHEMBL1762407

>  <target_organism>  (678) 
Homo sapiens

>  <standard_units>  (678) 
nM

>  <record_id>  (678) 
1414878

>  <document_chembl_id>  (678) 
CHEMBL1759965

>  <bao_format>  (678) 
BAO_0000219

>  <data_validity_description>  (678) 
None

>  <activity_id>  (678) 
6152936

>  <standard_type>  (678) 
IC50

>  <target_chembl_id>  (678) 
CHEMBL233

>  <data_validity_comment>  (678) 
None

>  <published_value>  (678) 
4885

>  <document_year>  (678) 
2011

>  <target_pref_name>  (678) 
Mu opioid receptor

>  <assay_chembl_id>  (678) 
CHEMBL1764074

>  <standard_relation>  (678) 
=

>  <assay_description>  (678) 
Displacement of [3H]-naltrindole from human mu opioid receptor expressed in CHO cells after 2 hrs by scintillation counting

>  <published_relation>  (678) 
=

>  <standard_value>  (678) 
4885

>  <qudt_units>  (678) 
http://www.openphacts.org/units/Nanomolar

>  <target_tax_id>  (678) 
9606

>  <bao_label>  (678) 
cell-based format

>  <published_units>  (678) 
nM

>  <pchembl_value>  (678) 
5.31

>  <published_type>  (678) 
IC50

>  <activity_comment>  (678) 
None

$$$$

     RDKit          

 38 41  0  0  0  0  0  0  0  0999 V2000
    0.0000    0.0000    0.0000 C   0  0  0  0  0  0  0  0  0  0  0  0
    0.0000    0.0000    0.0000 C   0  0  0  0  0  0  0  0  0  0  0  0
    0.0000    0.0000    0.0000 C   0  0  0  0  0  0  0  0  0  0  0  0
    0.0000    0.0000    0.0000 C   0  0  0  0  0  0  0  0  0  0  0  0
    0.0000    0.0000    0.0000 N   0  0  0  0  0  0  0  0  0  0  0  0
    0.0000    0.0000    0.0000 C   0  0  0  0  0  0  0  0  0  0  0  0
    0.0000    0.0000    0.0000 C   0  0  0  0  0  0  0  0  0  0  0  0
    0.0000    0.0000    0.0000 C   0  0  0  0  0  0  0  0  0  0  0  0
    0.0000    0.0000    0.0000 N   0  0  0  0  0  0  0  0  0  0  0  0
    0.0000    0.0000    0.0000 C   0  0  0  0  0  0  0  0  0  0  0  0
    0.0000    0.0000    0.0000 O   0  0  0  0  0  0  0  0  0  0  0  0
    0.0000    0.0000    0.0000 C   0  0  0  0  0  0  0  0  0  0  0  0
    0.0000    0.0000    0.0000 C   0  0  0  0  0  0  0  0  0  0  0  0
    0.0000    0.0000    0.0000 C   0  0  0  0  0  0  0  0  0  0  0  0
    0.0000    0.0000    0.0000 C   0  0  0  0  0  0  0  0  0  0  0  0
    0.0000    0.0000    0.0000 C   0  0  0  0  0  0  0  0  0  0  0  0
    0.0000    0.0000    0.0000 C   0  0  0  0  0  0  0  0  0  0  0  0
    0.0000    0.0000    0.0000 C   0  0  0  0  0  0  0  0  0  0  0  0
    0.0000    0.0000    0.0000 O   0  0  0  0  0  0  0  0  0  0  0  0
    0.0000    0.0000    0.0000 C   0  0  0  0  0  0  0  0  0  0  0  0
    0.0000    0.0000    0.0000 C   0  0  0  0  0  0  0  0  0  0  0  0
    0.0000    0.0000    0.0000 C   0  0  0  0  0  0  0  0  0  0  0  0
    0.0000    0.0000    0.0000 C   0  0  0  0  0  0  0  0  0  0  0  0
    0.0000    0.0000    0.0000 C   0  0  0  0  0  0  0  0  0  0  0  0
    0.0000    0.0000    0.0000 N   0  0  0  0  0  0  0  0  0  0  0  0
    0.0000    0.0000    0.0000 C   0  0  0  0  0  0  0  0  0  0  0  0
    0.0000    0.0000    0.0000 C   0  0  0  0  0  0  0  0  0  0  0  0
    0.0000    0.0000    0.0000 C   0  0  0  0  0  0  0  0  0  0  0  0
    0.0000    0.0000    0.0000 C   0  0  0  0  0  0  0  0  0  0  0  0
    0.0000    0.0000    0.0000 C   0  0  0  0  0  0  0  0  0  0  0  0
    0.0000    0.0000    0.0000 C   0  0  0  0  0  0  0  0  0  0  0  0
    0.0000    0.0000    0.0000 N   0  0  0  0  0  0  0  0  0  0  0  0
    0.0000    0.0000    0.0000 C   0  0  0  0  0  0  0  0  0  0  0  0
    0.0000    0.0000    0.0000 C   0  0  0  0  0  0  0  0  0  0  0  0
    0.0000    0.0000    0.0000 C   0  0  0  0  0  0  0  0  0  0  0  0
    0.0000    0.0000    0.0000 C   0  0  0  0  0  0  0  0  0  0  0  0
    0.0000    0.0000    0.0000 C   0  0  0  0  0  0  0  0  0  0  0  0
    0.0000    0.0000    0.0000 N   0  0  0  0  0  0  0  0  0  0  0  0
  1  2  1  0
  2  3  2  0
  3  4  1  0
  4  5  1  0
  4  6  2  0
  6  7  1  0
  7  8  2  0
  8  9  1  0
  9 10  1  0
 10 11  2  0
 10 12  1  0
 12 13  2  0
 13 14  1  0
 14 15  2  0
 15 16  1  0
 16 17  2  0
 17 18  1  0
 18 19  1  0
 19 20  1  0
 20 21  2  0
 21 22  1  0
 22 23  2  0
 23 24  1  0
 24 25  1  0
 25 26  1  0
 26 27  1  0
 27 28  1  0
 28 29  1  0
 29 30  1  0
 30 31  1  0
 31 32  1  0
 23 33  1  0
 33 34  2  0
  8 35  1  0
 35 36  2  0
 36 37  1  0
 37 38  2  0
 38  2  1  0
 37  6  1  0
 17 12  1  0
 34 20  1  0
M  END
>  <pIC50>  (679) 
5.22

>  <ChEMBL_ID>  (679) 
CHEMBL1760025

>  <document_journal>  (679) 
Eur. J. Med. Chem.

>  <bao_endpoint>  (679) 
BAO_0000190

>  <potential_duplicate>  (679) 
False

>  <uo_units>  (679) 
UO_0000065

>  <canonical_smiles>  (679) 
Cc1cc(N)c2cc(NC(=O)c3ccccc3COc4ccc(CNCCCCCCN)cc4)ccc2n1

>  <parent_molecule_chembl_id>  (679) 
CHEMBL1760025

>  <assay_type>  (679) 
B

>  <src_id>  (679) 
1

>  <ligand_efficiency>  (679) 
{u'le': u'0.19', u'bei': u'10.21', u'sei': u'4.53', u'lle': u'1.05'}

>  <standard_flag>  (679) 
True

>  <molecule_chembl_id>  (679) 
CHEMBL1760025

>  <target_organism>  (679) 
Homo sapiens

>  <standard_units>  (679) 
nM

>  <record_id>  (679) 
1414879

>  <document_chembl_id>  (679) 
CHEMBL1759965

>  <bao_format>  (679) 
BAO_0000219

>  <data_validity_description>  (679) 
None

>  <activity_id>  (679) 
6152937

>  <standard_type>  (679) 
IC50

>  <target_chembl_id>  (679) 
CHEMBL233

>  <data_validity_comment>  (679) 
None

>  <published_value>  (679) 
5999

>  <document_year>  (679) 
2011

>  <target_pref_name>  (679) 
Mu opioid receptor

>  <assay_chembl_id>  (679) 
CHEMBL1764074

>  <standard_relation>  (679) 
=

>  <assay_description>  (679) 
Displacement of [3H]-naltrindole from human mu opioid receptor expressed in CHO cells after 2 hrs by scintillation counting

>  <published_relation>  (679) 
=

>  <standard_value>  (679) 
5999

>  <qudt_units>  (679) 
http://www.openphacts.org/units/Nanomolar

>  <target_tax_id>  (679) 
9606

>  <bao_label>  (679) 
cell-based format

>  <published_units>  (679) 
nM

>  <pchembl_value>  (679) 
5.22

>  <published_type>  (679) 
IC50

>  <activity_comment>  (679) 
None

$$$$

     RDKit          

 39 42  0  0  0  0  0  0  0  0999 V2000
    0.0000    0.0000    0.0000 C   0  0  0  0  0  0  0  0  0  0  0  0
    0.0000    0.0000    0.0000 C   0  0  0  0  0  0  0  0  0  0  0  0
    0.0000    0.0000    0.0000 C   0  0  0  0  0  0  0  0  0  0  0  0
    0.0000    0.0000    0.0000 C   0  0  0  0  0  0  0  0  0  0  0  0
    0.0000    0.0000    0.0000 N   0  0  0  0  0  0  0  0  0  0  0  0
    0.0000    0.0000    0.0000 C   0  0  0  0  0  0  0  0  0  0  0  0
    0.0000    0.0000    0.0000 C   0  0  0  0  0  0  0  0  0  0  0  0
    0.0000    0.0000    0.0000 C   0  0  0  0  0  0  0  0  0  0  0  0
    0.0000    0.0000    0.0000 N   0  0  0  0  0  0  0  0  0  0  0  0
    0.0000    0.0000    0.0000 C   0  0  0  0  0  0  0  0  0  0  0  0
    0.0000    0.0000    0.0000 O   0  0  0  0  0  0  0  0  0  0  0  0
    0.0000    0.0000    0.0000 C   0  0  0  0  0  0  0  0  0  0  0  0
    0.0000    0.0000    0.0000 C   0  0  0  0  0  0  0  0  0  0  0  0
    0.0000    0.0000    0.0000 C   0  0  0  0  0  0  0  0  0  0  0  0
    0.0000    0.0000    0.0000 C   0  0  0  0  0  0  0  0  0  0  0  0
    0.0000    0.0000    0.0000 C   0  0  0  0  0  0  0  0  0  0  0  0
    0.0000    0.0000    0.0000 C   0  0  0  0  0  0  0  0  0  0  0  0
    0.0000    0.0000    0.0000 C   0  0  0  0  0  0  0  0  0  0  0  0
    0.0000    0.0000    0.0000 O   0  0  0  0  0  0  0  0  0  0  0  0
    0.0000    0.0000    0.0000 C   0  0  0  0  0  0  0  0  0  0  0  0
    0.0000    0.0000    0.0000 C   0  0  0  0  0  0  0  0  0  0  0  0
    0.0000    0.0000    0.0000 C   0  0  0  0  0  0  0  0  0  0  0  0
    0.0000    0.0000    0.0000 C   0  0  0  0  0  0  0  0  0  0  0  0
    0.0000    0.0000    0.0000 C   0  0  0  0  0  0  0  0  0  0  0  0
    0.0000    0.0000    0.0000 N   0  0  0  0  0  0  0  0  0  0  0  0
    0.0000    0.0000    0.0000 C   0  0  0  0  0  0  0  0  0  0  0  0
    0.0000    0.0000    0.0000 C   0  0  0  0  0  0  0  0  0  0  0  0
    0.0000    0.0000    0.0000 C   0  0  0  0  0  0  0  0  0  0  0  0
    0.0000    0.0000    0.0000 C   0  0  0  0  0  0  0  0  0  0  0  0
    0.0000    0.0000    0.0000 C   0  0  0  0  0  0  0  0  0  0  0  0
    0.0000    0.0000    0.0000 C   0  0  0  0  0  0  0  0  0  0  0  0
    0.0000    0.0000    0.0000 C   0  0  0  0  0  0  0  0  0  0  0  0
    0.0000    0.0000    0.0000 N   0  0  0  0  0  0  0  0  0  0  0  0
    0.0000    0.0000    0.0000 C   0  0  0  0  0  0  0  0  0  0  0  0
    0.0000    0.0000    0.0000 C   0  0  0  0  0  0  0  0  0  0  0  0
    0.0000    0.0000    0.0000 C   0  0  0  0  0  0  0  0  0  0  0  0
    0.0000    0.0000    0.0000 C   0  0  0  0  0  0  0  0  0  0  0  0
    0.0000    0.0000    0.0000 C   0  0  0  0  0  0  0  0  0  0  0  0
    0.0000    0.0000    0.0000 N   0  0  0  0  0  0  0  0  0  0  0  0
  1  2  1  0
  2  3  2  0
  3  4  1  0
  4  5  1  0
  4  6  2  0
  6  7  1  0
  7  8  2  0
  8  9  1  0
  9 10  1  0
 10 11  2  0
 10 12  1  0
 12 13  2  0
 13 14  1  0
 14 15  2  0
 15 16  1  0
 16 17  2  0
 17 18  1  0
 18 19  1  0
 19 20  1  0
 20 21  2  0
 21 22  1  0
 22 23  2  0
 23 24  1  0
 24 25  1  0
 25 26  1  0
 26 27  1  0
 27 28  1  0
 28 29  1  0
 29 30  1  0
 30 31  1  0
 31 32  1  0
 32 33  1  0
 23 34  1  0
 34 35  2  0
  8 36  1  0
 36 37  2  0
 37 38  1  0
 38 39  2  0
 39  2  1  0
 38  6  1  0
 17 12  1  0
 35 20  1  0
M  END
>  <pIC50>  (680) 
5.0

>  <ChEMBL_ID>  (680) 
CHEMBL1762408

>  <document_journal>  (680) 
Eur. J. Med. Chem.

>  <bao_endpoint>  (680) 
BAO_0000190

>  <potential_duplicate>  (680) 
False

>  <uo_units>  (680) 
UO_0000065

>  <canonical_smiles>  (680) 
Cc1cc(N)c2cc(NC(=O)c3ccccc3COc4ccc(CNCCCCCCCN)cc4)ccc2n1

>  <parent_molecule_chembl_id>  (680) 
CHEMBL1762408

>  <assay_type>  (680) 
B

>  <src_id>  (680) 
1

>  <ligand_efficiency>  (680) 
{u'le': u'0.18', u'bei': u'9.51', u'sei': u'4.34', u'lle': u'0.38'}

>  <standard_flag>  (680) 
True

>  <molecule_chembl_id>  (680) 
CHEMBL1762408

>  <target_organism>  (680) 
Homo sapiens

>  <standard_units>  (680) 
nM

>  <record_id>  (680) 
1414880

>  <document_chembl_id>  (680) 
CHEMBL1759965

>  <bao_format>  (680) 
BAO_0000219

>  <data_validity_description>  (680) 
None

>  <activity_id>  (680) 
6152938

>  <standard_type>  (680) 
IC50

>  <target_chembl_id>  (680) 
CHEMBL233

>  <data_validity_comment>  (680) 
None

>  <published_value>  (680) 
9978

>  <document_year>  (680) 
2011

>  <target_pref_name>  (680) 
Mu opioid receptor

>  <assay_chembl_id>  (680) 
CHEMBL1764074

>  <standard_relation>  (680) 
=

>  <assay_description>  (680) 
Displacement of [3H]-naltrindole from human mu opioid receptor expressed in CHO cells after 2 hrs by scintillation counting

>  <published_relation>  (680) 
=

>  <standard_value>  (680) 
9978

>  <qudt_units>  (680) 
http://www.openphacts.org/units/Nanomolar

>  <target_tax_id>  (680) 
9606

>  <bao_label>  (680) 
cell-based format

>  <published_units>  (680) 
nM

>  <pchembl_value>  (680) 
5

>  <published_type>  (680) 
IC50

>  <activity_comment>  (680) 
None

$$$$

     RDKit          

 40 43  0  0  0  0  0  0  0  0999 V2000
    0.0000    0.0000    0.0000 C   0  0  0  0  0  0  0  0  0  0  0  0
    0.0000    0.0000    0.0000 C   0  0  0  0  0  0  0  0  0  0  0  0
    0.0000    0.0000    0.0000 C   0  0  0  0  0  0  0  0  0  0  0  0
    0.0000    0.0000    0.0000 C   0  0  0  0  0  0  0  0  0  0  0  0
    0.0000    0.0000    0.0000 N   0  0  0  0  0  0  0  0  0  0  0  0
    0.0000    0.0000    0.0000 C   0  0  0  0  0  0  0  0  0  0  0  0
    0.0000    0.0000    0.0000 C   0  0  0  0  0  0  0  0  0  0  0  0
    0.0000    0.0000    0.0000 C   0  0  0  0  0  0  0  0  0  0  0  0
    0.0000    0.0000    0.0000 N   0  0  0  0  0  0  0  0  0  0  0  0
    0.0000    0.0000    0.0000 C   0  0  0  0  0  0  0  0  0  0  0  0
    0.0000    0.0000    0.0000 O   0  0  0  0  0  0  0  0  0  0  0  0
    0.0000    0.0000    0.0000 C   0  0  0  0  0  0  0  0  0  0  0  0
    0.0000    0.0000    0.0000 C   0  0  0  0  0  0  0  0  0  0  0  0
    0.0000    0.0000    0.0000 C   0  0  0  0  0  0  0  0  0  0  0  0
    0.0000    0.0000    0.0000 C   0  0  0  0  0  0  0  0  0  0  0  0
    0.0000    0.0000    0.0000 C   0  0  0  0  0  0  0  0  0  0  0  0
    0.0000    0.0000    0.0000 C   0  0  0  0  0  0  0  0  0  0  0  0
    0.0000    0.0000    0.0000 C   0  0  0  0  0  0  0  0  0  0  0  0
    0.0000    0.0000    0.0000 O   0  0  0  0  0  0  0  0  0  0  0  0
    0.0000    0.0000    0.0000 C   0  0  0  0  0  0  0  0  0  0  0  0
    0.0000    0.0000    0.0000 C   0  0  0  0  0  0  0  0  0  0  0  0
    0.0000    0.0000    0.0000 C   0  0  0  0  0  0  0  0  0  0  0  0
    0.0000    0.0000    0.0000 C   0  0  0  0  0  0  0  0  0  0  0  0
    0.0000    0.0000    0.0000 C   0  0  0  0  0  0  0  0  0  0  0  0
    0.0000    0.0000    0.0000 N   0  0  0  0  0  0  0  0  0  0  0  0
    0.0000    0.0000    0.0000 C   0  0  0  0  0  0  0  0  0  0  0  0
    0.0000    0.0000    0.0000 C   0  0  0  0  0  0  0  0  0  0  0  0
    0.0000    0.0000    0.0000 C   0  0  0  0  0  0  0  0  0  0  0  0
    0.0000    0.0000    0.0000 C   0  0  0  0  0  0  0  0  0  0  0  0
    0.0000    0.0000    0.0000 C   0  0  0  0  0  0  0  0  0  0  0  0
    0.0000    0.0000    0.0000 C   0  0  0  0  0  0  0  0  0  0  0  0
    0.0000    0.0000    0.0000 C   0  0  0  0  0  0  0  0  0  0  0  0
    0.0000    0.0000    0.0000 C   0  0  0  0  0  0  0  0  0  0  0  0
    0.0000    0.0000    0.0000 N   0  0  0  0  0  0  0  0  0  0  0  0
    0.0000    0.0000    0.0000 C   0  0  0  0  0  0  0  0  0  0  0  0
    0.0000    0.0000    0.0000 C   0  0  0  0  0  0  0  0  0  0  0  0
    0.0000    0.0000    0.0000 C   0  0  0  0  0  0  0  0  0  0  0  0
    0.0000    0.0000    0.0000 C   0  0  0  0  0  0  0  0  0  0  0  0
    0.0000    0.0000    0.0000 C   0  0  0  0  0  0  0  0  0  0  0  0
    0.0000    0.0000    0.0000 N   0  0  0  0  0  0  0  0  0  0  0  0
  1  2  1  0
  2  3  2  0
  3  4  1  0
  4  5  1  0
  4  6  2  0
  6  7  1  0
  7  8  2  0
  8  9  1  0
  9 10  1  0
 10 11  2  0
 10 12  1  0
 12 13  2  0
 13 14  1  0
 14 15  2  0
 15 16  1  0
 16 17  2  0
 17 18  1  0
 18 19  1  0
 19 20  1  0
 20 21  2  0
 21 22  1  0
 22 23  2  0
 23 24  1  0
 24 25  1  0
 25 26  1  0
 26 27  1  0
 27 28  1  0
 28 29  1  0
 29 30  1  0
 30 31  1  0
 31 32  1  0
 32 33  1  0
 33 34  1  0
 23 35  1  0
 35 36  2  0
  8 37  1  0
 37 38  2  0
 38 39  1  0
 39 40  2  0
 40  2  1  0
 39  6  1  0
 17 12  1  0
 36 20  1  0
M  END
>  <pIC50>  (681) 
6.49

>  <ChEMBL_ID>  (681) 
CHEMBL1762409

>  <document_journal>  (681) 
Eur. J. Med. Chem.

>  <bao_endpoint>  (681) 
BAO_0000190

>  <potential_duplicate>  (681) 
False

>  <uo_units>  (681) 
UO_0000065

>  <canonical_smiles>  (681) 
Cc1cc(N)c2cc(NC(=O)c3ccccc3COc4ccc(CNCCCCCCCCN)cc4)ccc2n1

>  <parent_molecule_chembl_id>  (681) 
CHEMBL1762409

>  <assay_type>  (681) 
B

>  <src_id>  (681) 
1

>  <ligand_efficiency>  (681) 
{u'le': u'0.22', u'bei': u'12.02', u'sei': u'5.63', u'lle': u'1.41'}

>  <standard_flag>  (681) 
True

>  <molecule_chembl_id>  (681) 
CHEMBL1762409

>  <target_organism>  (681) 
Homo sapiens

>  <standard_units>  (681) 
nM

>  <record_id>  (681) 
1414881

>  <document_chembl_id>  (681) 
CHEMBL1759965

>  <bao_format>  (681) 
BAO_0000219

>  <data_validity_description>  (681) 
None

>  <activity_id>  (681) 
6152939

>  <standard_type>  (681) 
IC50

>  <target_chembl_id>  (681) 
CHEMBL233

>  <data_validity_comment>  (681) 
None

>  <published_value>  (681) 
325

>  <document_year>  (681) 
2011

>  <target_pref_name>  (681) 
Mu opioid receptor

>  <assay_chembl_id>  (681) 
CHEMBL1764074

>  <standard_relation>  (681) 
=

>  <assay_description>  (681) 
Displacement of [3H]-naltrindole from human mu opioid receptor expressed in CHO cells after 2 hrs by scintillation counting

>  <published_relation>  (681) 
=

>  <standard_value>  (681) 
325

>  <qudt_units>  (681) 
http://www.openphacts.org/units/Nanomolar

>  <target_tax_id>  (681) 
9606

>  <bao_label>  (681) 
cell-based format

>  <published_units>  (681) 
nM

>  <pchembl_value>  (681) 
6.49

>  <published_type>  (681) 
IC50

>  <activity_comment>  (681) 
None

$$$$

     RDKit          

 41 44  0  0  0  0  0  0  0  0999 V2000
    0.0000    0.0000    0.0000 C   0  0  0  0  0  0  0  0  0  0  0  0
    0.0000    0.0000    0.0000 C   0  0  0  0  0  0  0  0  0  0  0  0
    0.0000    0.0000    0.0000 C   0  0  0  0  0  0  0  0  0  0  0  0
    0.0000    0.0000    0.0000 C   0  0  0  0  0  0  0  0  0  0  0  0
    0.0000    0.0000    0.0000 N   0  0  0  0  0  0  0  0  0  0  0  0
    0.0000    0.0000    0.0000 C   0  0  0  0  0  0  0  0  0  0  0  0
    0.0000    0.0000    0.0000 C   0  0  0  0  0  0  0  0  0  0  0  0
    0.0000    0.0000    0.0000 C   0  0  0  0  0  0  0  0  0  0  0  0
    0.0000    0.0000    0.0000 N   0  0  0  0  0  0  0  0  0  0  0  0
    0.0000    0.0000    0.0000 C   0  0  0  0  0  0  0  0  0  0  0  0
    0.0000    0.0000    0.0000 O   0  0  0  0  0  0  0  0  0  0  0  0
    0.0000    0.0000    0.0000 C   0  0  0  0  0  0  0  0  0  0  0  0
    0.0000    0.0000    0.0000 C   0  0  0  0  0  0  0  0  0  0  0  0
    0.0000    0.0000    0.0000 C   0  0  0  0  0  0  0  0  0  0  0  0
    0.0000    0.0000    0.0000 C   0  0  0  0  0  0  0  0  0  0  0  0
    0.0000    0.0000    0.0000 C   0  0  0  0  0  0  0  0  0  0  0  0
    0.0000    0.0000    0.0000 C   0  0  0  0  0  0  0  0  0  0  0  0
    0.0000    0.0000    0.0000 C   0  0  0  0  0  0  0  0  0  0  0  0
    0.0000    0.0000    0.0000 O   0  0  0  0  0  0  0  0  0  0  0  0
    0.0000    0.0000    0.0000 C   0  0  0  0  0  0  0  0  0  0  0  0
    0.0000    0.0000    0.0000 C   0  0  0  0  0  0  0  0  0  0  0  0
    0.0000    0.0000    0.0000 C   0  0  0  0  0  0  0  0  0  0  0  0
    0.0000    0.0000    0.0000 C   0  0  0  0  0  0  0  0  0  0  0  0
    0.0000    0.0000    0.0000 C   0  0  0  0  0  0  0  0  0  0  0  0
    0.0000    0.0000    0.0000 N   0  0  0  0  0  0  0  0  0  0  0  0
    0.0000    0.0000    0.0000 C   0  0  0  0  0  0  0  0  0  0  0  0
    0.0000    0.0000    0.0000 C   0  0  0  0  0  0  0  0  0  0  0  0
    0.0000    0.0000    0.0000 C   0  0  0  0  0  0  0  0  0  0  0  0
    0.0000    0.0000    0.0000 C   0  0  0  0  0  0  0  0  0  0  0  0
    0.0000    0.0000    0.0000 C   0  0  0  0  0  0  0  0  0  0  0  0
    0.0000    0.0000    0.0000 C   0  0  0  0  0  0  0  0  0  0  0  0
    0.0000    0.0000    0.0000 C   0  0  0  0  0  0  0  0  0  0  0  0
    0.0000    0.0000    0.0000 C   0  0  0  0  0  0  0  0  0  0  0  0
    0.0000    0.0000    0.0000 C   0  0  0  0  0  0  0  0  0  0  0  0
    0.0000    0.0000    0.0000 N   0  0  0  0  0  0  0  0  0  0  0  0
    0.0000    0.0000    0.0000 C   0  0  0  0  0  0  0  0  0  0  0  0
    0.0000    0.0000    0.0000 C   0  0  0  0  0  0  0  0  0  0  0  0
    0.0000    0.0000    0.0000 C   0  0  0  0  0  0  0  0  0  0  0  0
    0.0000    0.0000    0.0000 C   0  0  0  0  0  0  0  0  0  0  0  0
    0.0000    0.0000    0.0000 C   0  0  0  0  0  0  0  0  0  0  0  0
    0.0000    0.0000    0.0000 N   0  0  0  0  0  0  0  0  0  0  0  0
  1  2  1  0
  2  3  2  0
  3  4  1  0
  4  5  1  0
  4  6  2  0
  6  7  1  0
  7  8  2  0
  8  9  1  0
  9 10  1  0
 10 11  2  0
 10 12  1  0
 12 13  2  0
 13 14  1  0
 14 15  2  0
 15 16  1  0
 16 17  2  0
 17 18  1  0
 18 19  1  0
 19 20  1  0
 20 21  2  0
 21 22  1  0
 22 23  2  0
 23 24  1  0
 24 25  1  0
 25 26  1  0
 26 27  1  0
 27 28  1  0
 28 29  1  0
 29 30  1  0
 30 31  1  0
 31 32  1  0
 32 33  1  0
 33 34  1  0
 34 35  1  0
 23 36  1  0
 36 37  2  0
  8 38  1  0
 38 39  2  0
 39 40  1  0
 40 41  2  0
 41  2  1  0
 40  6  1  0
 17 12  1  0
 37 20  1  0
M  END
>  <pIC50>  (682) 
5.15

>  <ChEMBL_ID>  (682) 
CHEMBL1762410

>  <document_journal>  (682) 
Eur. J. Med. Chem.

>  <bao_endpoint>  (682) 
BAO_0000190

>  <potential_duplicate>  (682) 
False

>  <uo_units>  (682) 
UO_0000065

>  <canonical_smiles>  (682) 
Cc1cc(N)c2cc(NC(=O)c3ccccc3COc4ccc(CNCCCCCCCCCN)cc4)ccc2n1

>  <parent_molecule_chembl_id>  (682) 
CHEMBL1762410

>  <assay_type>  (682) 
B

>  <src_id>  (682) 
1

>  <ligand_efficiency>  (682) 
{u'le': u'0.17', u'bei': u'9.3', u'sei': u'4.47', u'lle': u'-0.39'}

>  <standard_flag>  (682) 
True

>  <molecule_chembl_id>  (682) 
CHEMBL1762410

>  <target_organism>  (682) 
Homo sapiens

>  <standard_units>  (682) 
nM

>  <record_id>  (682) 
1414882

>  <document_chembl_id>  (682) 
CHEMBL1759965

>  <bao_format>  (682) 
BAO_0000219

>  <data_validity_description>  (682) 
None

>  <activity_id>  (682) 
6152940

>  <standard_type>  (682) 
IC50

>  <target_chembl_id>  (682) 
CHEMBL233

>  <data_validity_comment>  (682) 
None

>  <published_value>  (682) 
7071

>  <document_year>  (682) 
2011

>  <target_pref_name>  (682) 
Mu opioid receptor

>  <assay_chembl_id>  (682) 
CHEMBL1764074

>  <standard_relation>  (682) 
=

>  <assay_description>  (682) 
Displacement of [3H]-naltrindole from human mu opioid receptor expressed in CHO cells after 2 hrs by scintillation counting

>  <published_relation>  (682) 
=

>  <standard_value>  (682) 
7071

>  <qudt_units>  (682) 
http://www.openphacts.org/units/Nanomolar

>  <target_tax_id>  (682) 
9606

>  <bao_label>  (682) 
cell-based format

>  <published_units>  (682) 
nM

>  <pchembl_value>  (682) 
5.15

>  <published_type>  (682) 
IC50

>  <activity_comment>  (682) 
None

$$$$

     RDKit          

 42 45  0  0  0  0  0  0  0  0999 V2000
    0.0000    0.0000    0.0000 C   0  0  0  0  0  0  0  0  0  0  0  0
    0.0000    0.0000    0.0000 C   0  0  0  0  0  0  0  0  0  0  0  0
    0.0000    0.0000    0.0000 C   0  0  0  0  0  0  0  0  0  0  0  0
    0.0000    0.0000    0.0000 C   0  0  0  0  0  0  0  0  0  0  0  0
    0.0000    0.0000    0.0000 N   0  0  0  0  0  0  0  0  0  0  0  0
    0.0000    0.0000    0.0000 C   0  0  0  0  0  0  0  0  0  0  0  0
    0.0000    0.0000    0.0000 C   0  0  0  0  0  0  0  0  0  0  0  0
    0.0000    0.0000    0.0000 C   0  0  0  0  0  0  0  0  0  0  0  0
    0.0000    0.0000    0.0000 N   0  0  0  0  0  0  0  0  0  0  0  0
    0.0000    0.0000    0.0000 C   0  0  0  0  0  0  0  0  0  0  0  0
    0.0000    0.0000    0.0000 O   0  0  0  0  0  0  0  0  0  0  0  0
    0.0000    0.0000    0.0000 C   0  0  0  0  0  0  0  0  0  0  0  0
    0.0000    0.0000    0.0000 C   0  0  0  0  0  0  0  0  0  0  0  0
    0.0000    0.0000    0.0000 C   0  0  0  0  0  0  0  0  0  0  0  0
    0.0000    0.0000    0.0000 C   0  0  0  0  0  0  0  0  0  0  0  0
    0.0000    0.0000    0.0000 C   0  0  0  0  0  0  0  0  0  0  0  0
    0.0000    0.0000    0.0000 C   0  0  0  0  0  0  0  0  0  0  0  0
    0.0000    0.0000    0.0000 C   0  0  0  0  0  0  0  0  0  0  0  0
    0.0000    0.0000    0.0000 O   0  0  0  0  0  0  0  0  0  0  0  0
    0.0000    0.0000    0.0000 C   0  0  0  0  0  0  0  0  0  0  0  0
    0.0000    0.0000    0.0000 C   0  0  0  0  0  0  0  0  0  0  0  0
    0.0000    0.0000    0.0000 C   0  0  0  0  0  0  0  0  0  0  0  0
    0.0000    0.0000    0.0000 C   0  0  0  0  0  0  0  0  0  0  0  0
    0.0000    0.0000    0.0000 C   0  0  0  0  0  0  0  0  0  0  0  0
    0.0000    0.0000    0.0000 N   0  0  0  0  0  0  0  0  0  0  0  0
    0.0000    0.0000    0.0000 C   0  0  0  0  0  0  0  0  0  0  0  0
    0.0000    0.0000    0.0000 C   0  0  0  0  0  0  0  0  0  0  0  0
    0.0000    0.0000    0.0000 C   0  0  0  0  0  0  0  0  0  0  0  0
    0.0000    0.0000    0.0000 C   0  0  0  0  0  0  0  0  0  0  0  0
    0.0000    0.0000    0.0000 C   0  0  0  0  0  0  0  0  0  0  0  0
    0.0000    0.0000    0.0000 C   0  0  0  0  0  0  0  0  0  0  0  0
    0.0000    0.0000    0.0000 C   0  0  0  0  0  0  0  0  0  0  0  0
    0.0000    0.0000    0.0000 C   0  0  0  0  0  0  0  0  0  0  0  0
    0.0000    0.0000    0.0000 C   0  0  0  0  0  0  0  0  0  0  0  0
    0.0000    0.0000    0.0000 C   0  0  0  0  0  0  0  0  0  0  0  0
    0.0000    0.0000    0.0000 N   0  0  0  0  0  0  0  0  0  0  0  0
    0.0000    0.0000    0.0000 C   0  0  0  0  0  0  0  0  0  0  0  0
    0.0000    0.0000    0.0000 C   0  0  0  0  0  0  0  0  0  0  0  0
    0.0000    0.0000    0.0000 C   0  0  0  0  0  0  0  0  0  0  0  0
    0.0000    0.0000    0.0000 C   0  0  0  0  0  0  0  0  0  0  0  0
    0.0000    0.0000    0.0000 C   0  0  0  0  0  0  0  0  0  0  0  0
    0.0000    0.0000    0.0000 N   0  0  0  0  0  0  0  0  0  0  0  0
  1  2  1  0
  2  3  2  0
  3  4  1  0
  4  5  1  0
  4  6  2  0
  6  7  1  0
  7  8  2  0
  8  9  1  0
  9 10  1  0
 10 11  2  0
 10 12  1  0
 12 13  2  0
 13 14  1  0
 14 15  2  0
 15 16  1  0
 16 17  2  0
 17 18  1  0
 18 19  1  0
 19 20  1  0
 20 21  2  0
 21 22  1  0
 22 23  2  0
 23 24  1  0
 24 25  1  0
 25 26  1  0
 26 27  1  0
 27 28  1  0
 28 29  1  0
 29 30  1  0
 30 31  1  0
 31 32  1  0
 32 33  1  0
 33 34  1  0
 34 35  1  0
 35 36  1  0
 23 37  1  0
 37 38  2  0
  8 39  1  0
 39 40  2  0
 40 41  1  0
 41 42  2  0
 42  2  1  0
 41  6  1  0
 17 12  1  0
 38 20  1  0
M  END
>  <pIC50>  (683) 
5.85

>  <ChEMBL_ID>  (683) 
CHEMBL1762411

>  <document_journal>  (683) 
Eur. J. Med. Chem.

>  <bao_endpoint>  (683) 
BAO_0000190

>  <potential_duplicate>  (683) 
False

>  <uo_units>  (683) 
UO_0000065

>  <canonical_smiles>  (683) 
Cc1cc(N)c2cc(NC(=O)c3ccccc3COc4ccc(CNCCCCCCCCCCN)cc4)ccc2n1

>  <parent_molecule_chembl_id>  (683) 
CHEMBL1762411

>  <assay_type>  (683) 
B

>  <src_id>  (683) 
1

>  <ligand_efficiency>  (683) 
{u'le': u'0.19', u'bei': u'10.31', u'sei': u'5.08', u'lle': u'-0.14'}

>  <standard_flag>  (683) 
True

>  <molecule_chembl_id>  (683) 
CHEMBL1762411

>  <target_organism>  (683) 
Homo sapiens

>  <standard_units>  (683) 
nM

>  <record_id>  (683) 
1414883

>  <document_chembl_id>  (683) 
CHEMBL1759965

>  <bao_format>  (683) 
BAO_0000219

>  <data_validity_description>  (683) 
None

>  <activity_id>  (683) 
6152941

>  <standard_type>  (683) 
IC50

>  <target_chembl_id>  (683) 
CHEMBL233

>  <data_validity_comment>  (683) 
None

>  <published_value>  (683) 
1401

>  <document_year>  (683) 
2011

>  <target_pref_name>  (683) 
Mu opioid receptor

>  <assay_chembl_id>  (683) 
CHEMBL1764074

>  <standard_relation>  (683) 
=

>  <assay_description>  (683) 
Displacement of [3H]-naltrindole from human mu opioid receptor expressed in CHO cells after 2 hrs by scintillation counting

>  <published_relation>  (683) 
=

>  <standard_value>  (683) 
1401

>  <qudt_units>  (683) 
http://www.openphacts.org/units/Nanomolar

>  <target_tax_id>  (683) 
9606

>  <bao_label>  (683) 
cell-based format

>  <published_units>  (683) 
nM

>  <pchembl_value>  (683) 
5.85

>  <published_type>  (683) 
IC50

>  <activity_comment>  (683) 
None

$$$$

     RDKit          

 31 34  0  0  0  0  0  0  0  0999 V2000
    0.0000    0.0000    0.0000 C   0  0  0  0  0  0  0  0  0  0  0  0
    0.0000    0.0000    0.0000 C   0  0  0  0  0  0  0  0  0  0  0  0
    0.0000    0.0000    0.0000 C   0  0  0  0  0  0  0  0  0  0  0  0
    0.0000    0.0000    0.0000 C   0  0  0  0  0  0  0  0  0  0  0  0
    0.0000    0.0000    0.0000 C   0  0  0  0  0  0  0  0  0  0  0  0
    0.0000    0.0000    0.0000 C   0  0  0  0  0  0  0  0  0  0  0  0
    0.0000    0.0000    0.0000 O   0  0  0  0  0  0  0  0  0  0  0  0
    0.0000    0.0000    0.0000 C   0  0  0  0  0  0  0  0  0  0  0  0
    0.0000    0.0000    0.0000 C   0  0  0  0  0  0  0  0  0  0  0  0
    0.0000    0.0000    0.0000 C   0  0  0  0  0  0  0  0  0  0  0  0
    0.0000    0.0000    0.0000 C   0  0  0  0  0  0  0  0  0  0  0  0
    0.0000    0.0000    0.0000 C   0  0  0  0  0  0  0  0  0  0  0  0
    0.0000    0.0000    0.0000 C   0  0  0  0  0  0  0  0  0  0  0  0
    0.0000    0.0000    0.0000 C   0  0  0  0  0  0  0  0  0  0  0  0
    0.0000    0.0000    0.0000 C   0  0  0  0  0  0  0  0  0  0  0  0
    0.0000    0.0000    0.0000 O   0  0  0  0  0  0  0  0  0  0  0  0
    0.0000    0.0000    0.0000 N   0  0  0  0  0  0  0  0  0  0  0  0
    0.0000    0.0000    0.0000 C   0  0  0  0  0  0  0  0  0  0  0  0
    0.0000    0.0000    0.0000 C   0  0  0  0  0  0  0  0  0  0  0  0
    0.0000    0.0000    0.0000 C   0  0  0  0  0  0  0  0  0  0  0  0
    0.0000    0.0000    0.0000 C   0  0  0  0  0  0  0  0  0  0  0  0
    0.0000    0.0000    0.0000 N   0  0  0  0  0  0  0  0  0  0  0  0
    0.0000    0.0000    0.0000 C   0  0  0  0  0  0  0  0  0  0  0  0
    0.0000    0.0000    0.0000 C   0  0  0  0  0  0  0  0  0  0  0  0
    0.0000    0.0000    0.0000 C   0  0  0  0  0  0  0  0  0  0  0  0
    0.0000    0.0000    0.0000 C   0  0  0  0  0  0  0  0  0  0  0  0
    0.0000    0.0000    0.0000 N   0  0  0  0  0  0  0  0  0  0  0  0
    0.0000    0.0000    0.0000 C   0  0  0  0  0  0  0  0  0  0  0  0
    0.0000    0.0000    0.0000 C   0  0  0  0  0  0  0  0  0  0  0  0
    0.0000    0.0000    0.0000 C   0  0  0  0  0  0  0  0  0  0  0  0
    0.0000    0.0000    0.0000 C   0  0  0  0  0  0  0  0  0  0  0  0
  1  2  1  0
  2  3  1  0
  3  4  2  0
  4  5  1  0
  5  6  2  0
  6  7  1  0
  7  8  1  0
  8  9  1  0
  9 10  2  0
 10 11  1  0
 11 12  2  0
 12 13  1  0
 13 14  2  0
 14 15  1  0
 15 16  2  0
 15 17  1  0
 17 18  1  0
 18 19  2  0
 19 20  1  0
 20 21  2  0
 21 22  1  0
 22 23  2  0
 23 24  1  0
 23 25  1  0
 25 26  2  0
 26 27  1  0
 26 28  1  0
 28 29  2  0
  6 30  1  0
 30 31  2  0
 31  3  1  0
 14  9  1  0
 29 18  1  0
 28 21  1  0
M  END
>  <pIC50>  (684) 
5.82

>  <ChEMBL_ID>  (684) 
CHEMBL140979

>  <document_journal>  (684) 
Eur. J. Med. Chem.

>  <bao_endpoint>  (684) 
BAO_0000190

>  <potential_duplicate>  (684) 
False

>  <uo_units>  (684) 
UO_0000065

>  <canonical_smiles>  (684) 
CCc1ccc(OCc2ccccc2C(=O)Nc3ccc4nc(C)cc(N)c4c3)cc1

>  <parent_molecule_chembl_id>  (684) 
CHEMBL140979

>  <assay_type>  (684) 
B

>  <src_id>  (684) 
1

>  <ligand_efficiency>  (684) 
{u'le': u'0.26', u'bei': u'14.15', u'sei': u'7.54', u'lle': u'0.97'}

>  <standard_flag>  (684) 
True

>  <molecule_chembl_id>  (684) 
CHEMBL140979

>  <target_organism>  (684) 
Homo sapiens

>  <standard_units>  (684) 
nM

>  <record_id>  (684) 
1414886

>  <document_chembl_id>  (684) 
CHEMBL1759965

>  <bao_format>  (684) 
BAO_0000219

>  <data_validity_description>  (684) 
None

>  <activity_id>  (684) 
6152942

>  <standard_type>  (684) 
IC50

>  <target_chembl_id>  (684) 
CHEMBL233

>  <data_validity_comment>  (684) 
None

>  <published_value>  (684) 
1507

>  <document_year>  (684) 
2011

>  <target_pref_name>  (684) 
Mu opioid receptor

>  <assay_chembl_id>  (684) 
CHEMBL1764074

>  <standard_relation>  (684) 
=

>  <assay_description>  (684) 
Displacement of [3H]-naltrindole from human mu opioid receptor expressed in CHO cells after 2 hrs by scintillation counting

>  <published_relation>  (684) 
=

>  <standard_value>  (684) 
1507

>  <qudt_units>  (684) 
http://www.openphacts.org/units/Nanomolar

>  <target_tax_id>  (684) 
9606

>  <bao_label>  (684) 
cell-based format

>  <published_units>  (684) 
nM

>  <pchembl_value>  (684) 
5.82

>  <published_type>  (684) 
IC50

>  <activity_comment>  (684) 
None

$$$$

     RDKit          

 26 31  0  0  0  0  0  0  0  0999 V2000
    0.0000    0.0000    0.0000 N   0  0  0  0  0  0  0  0  0  0  0  0
    0.0000    0.0000    0.0000 C   0  0  0  0  0  0  0  0  0  0  0  0
    0.0000    0.0000    0.0000 N   0  0  0  0  0  0  0  0  0  0  0  0
    0.0000    0.0000    0.0000 C   0  0  0  0  0  0  0  0  0  0  0  0
    0.0000    0.0000    0.0000 C   0  0  0  0  0  0  0  0  0  0  0  0
    0.0000    0.0000    0.0000 C   0  0  0  0  0  0  0  0  0  0  0  0
    0.0000    0.0000    0.0000 C   0  0  0  0  0  0  0  0  0  0  0  0
    0.0000    0.0000    0.0000 C   0  0  0  0  0  0  0  0  0  0  0  0
    0.0000    0.0000    0.0000 C   0  0  0  0  0  0  0  0  0  0  0  0
    0.0000    0.0000    0.0000 C   0  0  0  0  0  0  0  0  0  0  0  0
    0.0000    0.0000    0.0000 C   0  0  0  0  0  0  0  0  0  0  0  0
    0.0000    0.0000    0.0000 C   0  0  0  0  0  0  0  0  0  0  0  0
    0.0000    0.0000    0.0000 C   0  0  0  0  0  0  0  0  0  0  0  0
    0.0000    0.0000    0.0000 C   0  0  0  0  0  0  0  0  0  0  0  0
    0.0000    0.0000    0.0000 C   0  0  0  0  0  0  0  0  0  0  0  0
    0.0000    0.0000    0.0000 C   0  0  0  0  0  0  0  0  0  0  0  0
    0.0000    0.0000    0.0000 C   0  0  0  0  0  0  0  0  0  0  0  0
    0.0000    0.0000    0.0000 N   0  0  0  0  0  0  0  0  0  0  0  0
    0.0000    0.0000    0.0000 C   0  0  0  0  0  0  0  0  0  0  0  0
    0.0000    0.0000    0.0000 C   0  0  0  0  0  0  0  0  0  0  0  0
    0.0000    0.0000    0.0000 C   0  0  0  0  0  0  0  0  0  0  0  0
    0.0000    0.0000    0.0000 C   0  0  0  0  0  0  0  0  0  0  0  0
    0.0000    0.0000    0.0000 C   0  0  0  0  0  0  0  0  0  0  0  0
    0.0000    0.0000    0.0000 C   0  0  0  0  0  0  0  0  0  0  0  0
    0.0000    0.0000    0.0000 C   0  0  0  0  0  0  0  0  0  0  0  0
    0.0000    0.0000    0.0000 S   0  0  0  0  0  0  0  0  0  0  0  0
  1  2  1  0
  2  3  2  0
  3  4  1  0
  4  5  2  0
  5  6  1  0
  6  7  2  0
  7  8  1  0
  8  9  1  0
  9 10  1  0
 10 11  1  0
 11 12  1  0
 12 13  1  0
 13 14  1  0
 14 15  1  0
 15 16  1  0
 16 17  1  0
 17 18  1  0
 18 19  1  0
 19 20  1  0
 20 21  1  0
 21 22  1  0
 22 23  1  0
  7 24  1  0
 24 25  2  0
 25 26  1  0
 26  2  1  0
 25  4  1  0
 15  6  1  0
 18  9  1  0
 15 10  1  0
 23 20  1  0
M  END
>  <pIC50>  (685) 
7.07

>  <ChEMBL_ID>  (685) 
CHEMBL390866

>  <document_journal>  (685) 
J. Med. Chem.

>  <bao_endpoint>  (685) 
BAO_0000190

>  <potential_duplicate>  (685) 
False

>  <uo_units>  (685) 
UO_0000065

>  <canonical_smiles>  (685) 
Nc1nc2cc3c(C[C@@H]4[C@@H]5CCCC[C@]35CCN4CC6CCC6)cc2s1

>  <parent_molecule_chembl_id>  (685) 
CHEMBL390866

>  <assay_type>  (685) 
F

>  <src_id>  (685) 
1

>  <ligand_efficiency>  (685) 
None

>  <standard_flag>  (685) 
True

>  <molecule_chembl_id>  (685) 
CHEMBL390866

>  <target_organism>  (685) 
Homo sapiens

>  <standard_units>  (685) 
nM

>  <record_id>  (685) 
1416784

>  <document_chembl_id>  (685) 
CHEMBL1765082

>  <bao_format>  (685) 
BAO_0000219

>  <data_validity_description>  (685) 
None

>  <activity_id>  (685) 
6170169

>  <standard_type>  (685) 
IC50

>  <target_chembl_id>  (685) 
CHEMBL233

>  <data_validity_comment>  (685) 
None

>  <published_value>  (685) 
85

>  <document_year>  (685) 
2011

>  <target_pref_name>  (685) 
Mu opioid receptor

>  <assay_chembl_id>  (685) 
CHEMBL1769436

>  <standard_relation>  (685) 
=

>  <assay_description>  (685) 
Antagonist activity at human mu opioid receptor expressed in CHO cells assessed as inhibition of DAMGO-induced [35S]GTPgammaS binding by scintillation counting

>  <published_relation>  (685) 
=

>  <standard_value>  (685) 
85

>  <qudt_units>  (685) 
http://www.openphacts.org/units/Nanomolar

>  <target_tax_id>  (685) 
9606

>  <bao_label>  (685) 
cell-based format

>  <published_units>  (685) 
nM

>  <pchembl_value>  (685) 
7.07

>  <published_type>  (685) 
IC50

>  <activity_comment>  (685) 
None

$$$$

     RDKit          

 60 71  0  0  0  0  0  0  0  0999 V2000
    0.0000    0.0000    0.0000 C   0  0  0  0  0  0  0  0  0  0  0  0
    0.0000    0.0000    0.0000 C   0  0  0  0  0  0  0  0  0  0  0  0
    0.0000    0.0000    0.0000 C   0  0  0  0  0  0  0  0  0  0  0  0
    0.0000    0.0000    0.0000 C   0  0  0  0  0  0  0  0  0  0  0  0
    0.0000    0.0000    0.0000 C   0  0  0  0  0  0  0  0  0  0  0  0
    0.0000    0.0000    0.0000 C   0  0  0  0  0  0  0  0  0  0  0  0
    0.0000    0.0000    0.0000 N   0  0  0  0  0  0  0  0  0  0  0  0
    0.0000    0.0000    0.0000 C   0  0  0  0  0  0  0  0  0  0  0  0
    0.0000    0.0000    0.0000 N   0  0  0  0  0  0  0  0  0  0  0  0
    0.0000    0.0000    0.0000 C   0  0  0  0  0  0  0  0  0  0  0  0
    0.0000    0.0000    0.0000 C   0  0  0  0  0  0  0  0  0  0  0  0
    0.0000    0.0000    0.0000 C   0  0  0  0  0  0  0  0  0  0  0  0
    0.0000    0.0000    0.0000 C   0  0  0  0  0  0  0  0  0  0  0  0
    0.0000    0.0000    0.0000 C   0  0  0  0  0  0  0  0  0  0  0  0
    0.0000    0.0000    0.0000 C   0  0  0  0  0  0  0  0  0  0  0  0
    0.0000    0.0000    0.0000 C   0  0  0  0  0  0  0  0  0  0  0  0
    0.0000    0.0000    0.0000 C   0  0  0  0  0  0  0  0  0  0  0  0
    0.0000    0.0000    0.0000 C   0  0  0  0  0  0  0  0  0  0  0  0
    0.0000    0.0000    0.0000 C   0  0  0  0  0  0  0  0  0  0  0  0
    0.0000    0.0000    0.0000 C   0  0  0  0  0  0  0  0  0  0  0  0
    0.0000    0.0000    0.0000 C   0  0  0  0  0  0  0  0  0  0  0  0
    0.0000    0.0000    0.0000 C   0  0  0  0  0  0  0  0  0  0  0  0
    0.0000    0.0000    0.0000 C   0  0  0  0  0  0  0  0  0  0  0  0
    0.0000    0.0000    0.0000 N   0  0  0  0  0  0  0  0  0  0  0  0
    0.0000    0.0000    0.0000 C   0  0  0  0  0  0  0  0  0  0  0  0
    0.0000    0.0000    0.0000 C   0  0  0  0  0  0  0  0  0  0  0  0
    0.0000    0.0000    0.0000 C   0  0  0  0  0  0  0  0  0  0  0  0
    0.0000    0.0000    0.0000 C   0  0  0  0  0  0  0  0  0  0  0  0
    0.0000    0.0000    0.0000 C   0  0  0  0  0  0  0  0  0  0  0  0
    0.0000    0.0000    0.0000 C   0  0  0  0  0  0  0  0  0  0  0  0
    0.0000    0.0000    0.0000 S   0  0  0  0  0  0  0  0  0  0  0  0
    0.0000    0.0000    0.0000 C   0  0  0  0  0  0  0  0  0  0  0  0
    0.0000    0.0000    0.0000 C   0  0  0  0  0  0  0  0  0  0  0  0
    0.0000    0.0000    0.0000 C   0  0  0  0  0  0  0  0  0  0  0  0
    0.0000    0.0000    0.0000 C   0  0  0  0  0  0  0  0  0  0  0  0
    0.0000    0.0000    0.0000 N   0  0  0  0  0  0  0  0  0  0  0  0
    0.0000    0.0000    0.0000 C   0  0  0  0  0  0  0  0  0  0  0  0
    0.0000    0.0000    0.0000 N   0  0  0  0  0  0  0  0  0  0  0  0
    0.0000    0.0000    0.0000 C   0  0  0  0  0  0  0  0  0  0  0  0
    0.0000    0.0000    0.0000 C   0  0  0  0  0  0  0  0  0  0  0  0
    0.0000    0.0000    0.0000 C   0  0  0  0  0  0  0  0  0  0  0  0
    0.0000    0.0000    0.0000 C   0  0  0  0  0  0  0  0  0  0  0  0
    0.0000    0.0000    0.0000 C   0  0  0  0  0  0  0  0  0  0  0  0
    0.0000    0.0000    0.0000 C   0  0  0  0  0  0  0  0  0  0  0  0
    0.0000    0.0000    0.0000 C   0  0  0  0  0  0  0  0  0  0  0  0
    0.0000    0.0000    0.0000 C   0  0  0  0  0  0  0  0  0  0  0  0
    0.0000    0.0000    0.0000 C   0  0  0  0  0  0  0  0  0  0  0  0
    0.0000    0.0000    0.0000 C   0  0  0  0  0  0  0  0  0  0  0  0
    0.0000    0.0000    0.0000 C   0  0  0  0  0  0  0  0  0  0  0  0
    0.0000    0.0000    0.0000 C   0  0  0  0  0  0  0  0  0  0  0  0
    0.0000    0.0000    0.0000 C   0  0  0  0  0  0  0  0  0  0  0  0
    0.0000    0.0000    0.0000 C   0  0  0  0  0  0  0  0  0  0  0  0
    0.0000    0.0000    0.0000 N   0  0  0  0  0  0  0  0  0  0  0  0
    0.0000    0.0000    0.0000 C   0  0  0  0  0  0  0  0  0  0  0  0
    0.0000    0.0000    0.0000 C   0  0  0  0  0  0  0  0  0  0  0  0
    0.0000    0.0000    0.0000 C   0  0  0  0  0  0  0  0  0  0  0  0
    0.0000    0.0000    0.0000 C   0  0  0  0  0  0  0  0  0  0  0  0
    0.0000    0.0000    0.0000 C   0  0  0  0  0  0  0  0  0  0  0  0
    0.0000    0.0000    0.0000 C   0  0  0  0  0  0  0  0  0  0  0  0
    0.0000    0.0000    0.0000 S   0  0  0  0  0  0  0  0  0  0  0  0
  1  2  1  0
  2  3  1  0
  3  4  1  0
  4  5  1  0
  5  6  1  0
  6  7  1  0
  7  8  1  0
  8  9  2  0
  9 10  1  0
 10 11  2  0
 11 12  1  0
 12 13  2  0
 13 14  1  0
 14 15  1  0
 15 16  1  0
 16 17  1  0
 17 18  1  0
 18 19  1  0
 19 20  1  0
 20 21  1  0
 21 22  1  0
 22 23  1  0
 23 24  1  0
 24 25  1  0
 25 26  1  0
 26 27  1  0
 27 28  1  0
 13 29  1  0
 29 30  2  0
 30 31  1  0
  1 32  1  0
 32 33  1  0
 33 34  1  0
 34 35  1  0
 35 36  1  0
 36 37  1  0
 37 38  2  0
 38 39  1  0
 39 40  2  0
 40 41  1  0
 41 42  2  0
 42 43  1  0
 43 44  1  0
 44 45  1  0
 45 46  1  0
 46 47  1  0
 47 48  1  0
 48 49  1  0
 49 50  1  0
 50 51  1  0
 51 52  1  0
 52 53  1  0
 53 54  1  0
 54 55  1  0
 55 56  1  0
 56 57  1  0
 42 58  1  0
 58 59  2  0
 59 60  1  0
 31  8  1  0
 30 10  1  0
 21 12  1  0
 24 15  1  0
 21 16  1  0
 28 26  1  0
 60 37  1  0
 59 39  1  0
 50 41  1  0
 53 44  1  0
 50 45  1  0
 57 55  1  0
M  END
>  <pIC50>  (686) 
6.41

>  <ChEMBL_ID>  (686) 
CHEMBL1774952

>  <document_journal>  (686) 
Bioorg. Med. Chem.

>  <bao_endpoint>  (686) 
BAO_0000190

>  <potential_duplicate>  (686) 
False

>  <uo_units>  (686) 
UO_0000065

>  <canonical_smiles>  (686) 
C(CCCCCNc1nc2cc3c(C[C@@H]4[C@@H]5CCCC[C@]35CCN4CC6CC6)cc2s1)CCCCNc7nc8cc9c(C[C@@H]%10[C@@H]%11CCCC[C@]9%11CCN%10CC%12CC%12)cc8s7

>  <parent_molecule_chembl_id>  (686) 
CHEMBL1774952

>  <assay_type>  (686) 
F

>  <src_id>  (686) 
1

>  <ligand_efficiency>  (686) 
None

>  <standard_flag>  (686) 
True

>  <molecule_chembl_id>  (686) 
CHEMBL1774952

>  <target_organism>  (686) 
Homo sapiens

>  <standard_units>  (686) 
nM

>  <record_id>  (686) 
1423103

>  <document_chembl_id>  (686) 
CHEMBL1772956

>  <bao_format>  (686) 
BAO_0000219

>  <data_validity_description>  (686) 
None

>  <activity_id>  (686) 
6192824

>  <standard_type>  (686) 
IC50

>  <target_chembl_id>  (686) 
CHEMBL233

>  <data_validity_comment>  (686) 
None

>  <published_value>  (686) 
390

>  <document_year>  (686) 
2011

>  <target_pref_name>  (686) 
Mu opioid receptor

>  <assay_chembl_id>  (686) 
CHEMBL1777023

>  <standard_relation>  (686) 
=

>  <assay_description>  (686) 
Antagonist activity at human mu-opioid receptor expressed in CHO cells assessed as inhibition of DAMGO-induced [35S]GTPgammaS binding after 60 mins by scintillation counting

>  <published_relation>  (686) 
=

>  <standard_value>  (686) 
390

>  <qudt_units>  (686) 
http://www.openphacts.org/units/Nanomolar

>  <target_tax_id>  (686) 
9606

>  <bao_label>  (686) 
cell-based format

>  <published_units>  (686) 
nM

>  <pchembl_value>  (686) 
6.41

>  <published_type>  (686) 
IC50

>  <activity_comment>  (686) 
None

$$$$

     RDKit          

 60 69  0  0  0  0  0  0  0  0999 V2000
    0.0000    0.0000    0.0000 O   0  0  0  0  0  0  0  0  0  0  0  0
    0.0000    0.0000    0.0000 C   0  0  0  0  0  0  0  0  0  0  0  0
    0.0000    0.0000    0.0000 C   0  0  0  0  0  0  0  0  0  0  0  0
    0.0000    0.0000    0.0000 C   0  0  0  0  0  0  0  0  0  0  0  0
    0.0000    0.0000    0.0000 C   0  0  0  0  0  0  0  0  0  0  0  0
    0.0000    0.0000    0.0000 C   0  0  0  0  0  0  0  0  0  0  0  0
    0.0000    0.0000    0.0000 C   0  0  0  0  0  0  0  0  0  0  0  0
    0.0000    0.0000    0.0000 C   0  0  0  0  0  0  0  0  0  0  0  0
    0.0000    0.0000    0.0000 C   0  0  0  0  0  0  0  0  0  0  0  0
    0.0000    0.0000    0.0000 N   0  0  0  0  0  0  0  0  0  0  0  0
    0.0000    0.0000    0.0000 C   0  0  0  0  0  0  0  0  0  0  0  0
    0.0000    0.0000    0.0000 C   0  0  0  0  0  0  0  0  0  0  0  0
    0.0000    0.0000    0.0000 C   0  0  0  0  0  0  0  0  0  0  0  0
    0.0000    0.0000    0.0000 C   0  0  0  0  0  0  0  0  0  0  0  0
    0.0000    0.0000    0.0000 C   0  0  0  0  0  0  0  0  0  0  0  0
    0.0000    0.0000    0.0000 C   0  0  0  0  0  0  0  0  0  0  0  0
    0.0000    0.0000    0.0000 C   0  0  0  0  0  0  0  0  0  0  0  0
    0.0000    0.0000    0.0000 C   0  0  0  0  0  0  0  0  0  0  0  0
    0.0000    0.0000    0.0000 C   0  0  0  0  0  0  0  0  0  0  0  0
    0.0000    0.0000    0.0000 C   0  0  0  0  0  0  0  0  0  0  0  0
    0.0000    0.0000    0.0000 C   0  0  0  0  0  0  0  0  0  0  0  0
    0.0000    0.0000    0.0000 O   0  0  0  0  0  0  0  0  0  0  0  0
    0.0000    0.0000    0.0000 C   0  0  0  0  0  0  0  0  0  0  0  0
    0.0000    0.0000    0.0000 O   0  0  0  0  0  0  0  0  0  0  0  0
    0.0000    0.0000    0.0000 C   0  0  0  0  0  0  0  0  0  0  0  0
    0.0000    0.0000    0.0000 C   0  0  0  0  0  0  0  0  0  0  0  0
    0.0000    0.0000    0.0000 C   0  0  0  0  0  0  0  0  0  0  0  0
    0.0000    0.0000    0.0000 C   0  0  0  0  0  0  0  0  0  0  0  0
    0.0000    0.0000    0.0000 C   0  0  0  0  0  0  0  0  0  0  0  0
    0.0000    0.0000    0.0000 C   0  0  0  0  0  0  0  0  0  0  0  0
    0.0000    0.0000    0.0000 C   0  0  0  0  0  0  0  0  0  0  0  0
    0.0000    0.0000    0.0000 C   0  0  0  0  0  0  0  0  0  0  0  0
    0.0000    0.0000    0.0000 C   0  0  0  0  0  0  0  0  0  0  0  0
    0.0000    0.0000    0.0000 O   0  0  0  0  0  0  0  0  0  0  0  0
    0.0000    0.0000    0.0000 O   0  0  0  0  0  0  0  0  0  0  0  0
    0.0000    0.0000    0.0000 C   0  0  0  0  0  0  0  0  0  0  0  0
    0.0000    0.0000    0.0000 C   0  0  0  0  0  0  0  0  0  0  0  0
    0.0000    0.0000    0.0000 C   0  0  0  0  0  0  0  0  0  0  0  0
    0.0000    0.0000    0.0000 C   0  0  0  0  0  0  0  0  0  0  0  0
    0.0000    0.0000    0.0000 C   0  0  0  0  0  0  0  0  0  0  0  0
    0.0000    0.0000    0.0000 C   0  0  0  0  0  0  0  0  0  0  0  0
    0.0000    0.0000    0.0000 N   0  0  0  0  0  0  0  0  0  0  0  0
    0.0000    0.0000    0.0000 C   0  0  0  0  0  0  0  0  0  0  0  0
    0.0000    0.0000    0.0000 C   0  0  0  0  0  0  0  0  0  0  0  0
    0.0000    0.0000    0.0000 C   0  0  0  0  0  0  0  0  0  0  0  0
    0.0000    0.0000    0.0000 C   0  0  0  0  0  0  0  0  0  0  0  0
    0.0000    0.0000    0.0000 C   0  0  0  0  0  0  0  0  0  0  0  0
    0.0000    0.0000    0.0000 C   0  0  0  0  0  0  0  0  0  0  0  0
    0.0000    0.0000    0.0000 C   0  0  0  0  0  0  0  0  0  0  0  0
    0.0000    0.0000    0.0000 O   0  0  0  0  0  0  0  0  0  0  0  0
    0.0000    0.0000    0.0000 C   0  0  0  0  0  0  0  0  0  0  0  0
    0.0000    0.0000    0.0000 C   0  0  0  0  0  0  0  0  0  0  0  0
    0.0000    0.0000    0.0000 C   0  0  0  0  0  0  0  0  0  0  0  0
    0.0000    0.0000    0.0000 O   0  0  0  0  0  0  0  0  0  0  0  0
    0.0000    0.0000    0.0000 C   0  0  0  0  0  0  0  0  0  0  0  0
    0.0000    0.0000    0.0000 C   0  0  0  0  0  0  0  0  0  0  0  0
    0.0000    0.0000    0.0000 C   0  0  0  0  0  0  0  0  0  0  0  0
    0.0000    0.0000    0.0000 O   0  0  0  0  0  0  0  0  0  0  0  0
    0.0000    0.0000    0.0000 C   0  0  0  0  0  0  0  0  0  0  0  0
    0.0000    0.0000    0.0000 C   0  0  0  0  0  0  0  0  0  0  0  0
  1  2  1  0
  2  3  1  0
  3  4  1  0
  4  5  1  0
  5  6  1  0
  6  7  1  0
  7  8  1  0
  8  9  1  0
  9 10  1  0
 10 11  1  0
 11 12  1  0
 12 13  1  0
 13 14  1  0
 14 15  1  0
 10 16  1  0
 16 17  1  0
 17 18  1  0
 18 19  2  0
 19 20  1  0
 20 21  2  0
 21 22  1  0
 22 23  1  0
 23 24  2  0
 23 25  1  0
 25 26  1  0
 26 27  1  0
 27 28  1  0
 28 29  1  0
 29 30  1  0
 30 31  1  0
 31 32  1  0
 32 33  1  0
 33 34  2  0
 33 35  1  0
 35 36  1  0
 36 37  2  0
 37 38  1  0
 38 39  2  0
 39 40  1  0
 40 41  1  0
 41 42  1  0
 42 43  1  0
 43 44  1  0
 44 45  2  0
 42 46  1  0
 46 47  1  0
 47 48  1  0
 48 49  1  0
 49 50  1  0
 50 51  1  0
 51 52  2  0
 49 53  1  0
 53 54  2  0
 53 55  1  0
 55 56  1  0
 56 57  1  0
 57 58  1  0
 21 59  1  0
 59 60  2  0
  7  2  1  0
 16  2  1  0
 60  7  1  0
 15 12  1  0
 60 18  1  0
 51 36  1  0
 52 39  1  0
 57 41  1  0
 52 48  1  0
 57 48  1  0
M  END
>  <pIC50>  (687) 
7.47

>  <ChEMBL_ID>  (687) 
CHEMBL1774950

>  <document_journal>  (687) 
Bioorg. Med. Chem.

>  <bao_endpoint>  (687) 
BAO_0000190

>  <potential_duplicate>  (687) 
False

>  <uo_units>  (687) 
UO_0000065

>  <canonical_smiles>  (687) 
O[C@@]12CCCC[C@@]13CCN(CC4CCC4)[C@@H]2Cc5ccc(OC(=O)CCCCCCCCC(=O)Oc6ccc7C[C@H]8N(CC=C)CC[C@@]9%10[C@@H](Oc6c79)C(=O)CC[C@@]8%10O)cc35

>  <parent_molecule_chembl_id>  (687) 
CHEMBL1774950

>  <assay_type>  (687) 
F

>  <src_id>  (687) 
1

>  <ligand_efficiency>  (687) 
None

>  <standard_flag>  (687) 
True

>  <molecule_chembl_id>  (687) 
CHEMBL1774950

>  <target_organism>  (687) 
Homo sapiens

>  <standard_units>  (687) 
nM

>  <record_id>  (687) 
1423100

>  <document_chembl_id>  (687) 
CHEMBL1772956

>  <bao_format>  (687) 
BAO_0000219

>  <data_validity_description>  (687) 
None

>  <activity_id>  (687) 
6192825

>  <standard_type>  (687) 
IC50

>  <target_chembl_id>  (687) 
CHEMBL233

>  <data_validity_comment>  (687) 
None

>  <published_value>  (687) 
34

>  <document_year>  (687) 
2011

>  <target_pref_name>  (687) 
Mu opioid receptor

>  <assay_chembl_id>  (687) 
CHEMBL1777023

>  <standard_relation>  (687) 
=

>  <assay_description>  (687) 
Antagonist activity at human mu-opioid receptor expressed in CHO cells assessed as inhibition of DAMGO-induced [35S]GTPgammaS binding after 60 mins by scintillation counting

>  <published_relation>  (687) 
=

>  <standard_value>  (687) 
34

>  <qudt_units>  (687) 
http://www.openphacts.org/units/Nanomolar

>  <target_tax_id>  (687) 
9606

>  <bao_label>  (687) 
cell-based format

>  <published_units>  (687) 
nM

>  <pchembl_value>  (687) 
7.47

>  <published_type>  (687) 
IC50

>  <activity_comment>  (687) 
None

$$$$

     RDKit          

 59 68  0  0  0  0  0  0  0  0999 V2000
    0.0000    0.0000    0.0000 O   0  0  0  0  0  0  0  0  0  0  0  0
    0.0000    0.0000    0.0000 C   0  0  0  0  0  0  0  0  0  0  0  0
    0.0000    0.0000    0.0000 C   0  0  0  0  0  0  0  0  0  0  0  0
    0.0000    0.0000    0.0000 C   0  0  0  0  0  0  0  0  0  0  0  0
    0.0000    0.0000    0.0000 C   0  0  0  0  0  0  0  0  0  0  0  0
    0.0000    0.0000    0.0000 C   0  0  0  0  0  0  0  0  0  0  0  0
    0.0000    0.0000    0.0000 C   0  0  0  0  0  0  0  0  0  0  0  0
    0.0000    0.0000    0.0000 C   0  0  0  0  0  0  0  0  0  0  0  0
    0.0000    0.0000    0.0000 C   0  0  0  0  0  0  0  0  0  0  0  0
    0.0000    0.0000    0.0000 N   0  0  0  0  0  0  0  0  0  0  0  0
    0.0000    0.0000    0.0000 C   0  0  0  0  0  0  0  0  0  0  0  0
    0.0000    0.0000    0.0000 C   0  0  0  0  0  0  0  0  0  0  0  0
    0.0000    0.0000    0.0000 C   0  0  0  0  0  0  0  0  0  0  0  0
    0.0000    0.0000    0.0000 C   0  0  0  0  0  0  0  0  0  0  0  0
    0.0000    0.0000    0.0000 C   0  0  0  0  0  0  0  0  0  0  0  0
    0.0000    0.0000    0.0000 C   0  0  0  0  0  0  0  0  0  0  0  0
    0.0000    0.0000    0.0000 C   0  0  0  0  0  0  0  0  0  0  0  0
    0.0000    0.0000    0.0000 C   0  0  0  0  0  0  0  0  0  0  0  0
    0.0000    0.0000    0.0000 C   0  0  0  0  0  0  0  0  0  0  0  0
    0.0000    0.0000    0.0000 C   0  0  0  0  0  0  0  0  0  0  0  0
    0.0000    0.0000    0.0000 C   0  0  0  0  0  0  0  0  0  0  0  0
    0.0000    0.0000    0.0000 O   0  0  0  0  0  0  0  0  0  0  0  0
    0.0000    0.0000    0.0000 C   0  0  0  0  0  0  0  0  0  0  0  0
    0.0000    0.0000    0.0000 O   0  0  0  0  0  0  0  0  0  0  0  0
    0.0000    0.0000    0.0000 C   0  0  0  0  0  0  0  0  0  0  0  0
    0.0000    0.0000    0.0000 C   0  0  0  0  0  0  0  0  0  0  0  0
    0.0000    0.0000    0.0000 C   0  0  0  0  0  0  0  0  0  0  0  0
    0.0000    0.0000    0.0000 C   0  0  0  0  0  0  0  0  0  0  0  0
    0.0000    0.0000    0.0000 C   0  0  0  0  0  0  0  0  0  0  0  0
    0.0000    0.0000    0.0000 C   0  0  0  0  0  0  0  0  0  0  0  0
    0.0000    0.0000    0.0000 C   0  0  0  0  0  0  0  0  0  0  0  0
    0.0000    0.0000    0.0000 C   0  0  0  0  0  0  0  0  0  0  0  0
    0.0000    0.0000    0.0000 C   0  0  0  0  0  0  0  0  0  0  0  0
    0.0000    0.0000    0.0000 O   0  0  0  0  0  0  0  0  0  0  0  0
    0.0000    0.0000    0.0000 O   0  0  0  0  0  0  0  0  0  0  0  0
    0.0000    0.0000    0.0000 C   0  0  0  0  0  0  0  0  0  0  0  0
    0.0000    0.0000    0.0000 C   0  0  0  0  0  0  0  0  0  0  0  0
    0.0000    0.0000    0.0000 C   0  0  0  0  0  0  0  0  0  0  0  0
    0.0000    0.0000    0.0000 C   0  0  0  0  0  0  0  0  0  0  0  0
    0.0000    0.0000    0.0000 C   0  0  0  0  0  0  0  0  0  0  0  0
    0.0000    0.0000    0.0000 C   0  0  0  0  0  0  0  0  0  0  0  0
    0.0000    0.0000    0.0000 C   0  0  0  0  0  0  0  0  0  0  0  0
    0.0000    0.0000    0.0000 C   0  0  0  0  0  0  0  0  0  0  0  0
    0.0000    0.0000    0.0000 C   0  0  0  0  0  0  0  0  0  0  0  0
    0.0000    0.0000    0.0000 C   0  0  0  0  0  0  0  0  0  0  0  0
    0.0000    0.0000    0.0000 C   0  0  0  0  0  0  0  0  0  0  0  0
    0.0000    0.0000    0.0000 C   0  0  0  0  0  0  0  0  0  0  0  0
    0.0000    0.0000    0.0000 C   0  0  0  0  0  0  0  0  0  0  0  0
    0.0000    0.0000    0.0000 C   0  0  0  0  0  0  0  0  0  0  0  0
    0.0000    0.0000    0.0000 N   0  0  0  0  0  0  0  0  0  0  0  0
    0.0000    0.0000    0.0000 C   0  0  0  0  0  0  0  0  0  0  0  0
    0.0000    0.0000    0.0000 C   0  0  0  0  0  0  0  0  0  0  0  0
    0.0000    0.0000    0.0000 C   0  0  0  0  0  0  0  0  0  0  0  0
    0.0000    0.0000    0.0000 C   0  0  0  0  0  0  0  0  0  0  0  0
    0.0000    0.0000    0.0000 C   0  0  0  0  0  0  0  0  0  0  0  0
    0.0000    0.0000    0.0000 C   0  0  0  0  0  0  0  0  0  0  0  0
    0.0000    0.0000    0.0000 C   0  0  0  0  0  0  0  0  0  0  0  0
    0.0000    0.0000    0.0000 C   0  0  0  0  0  0  0  0  0  0  0  0
    0.0000    0.0000    0.0000 C   0  0  0  0  0  0  0  0  0  0  0  0
  1  2  1  0
  2  3  1  0
  3  4  1  0
  4  5  1  0
  5  6  1  0
  6  7  1  0
  7  8  1  0
  8  9  1  0
  9 10  1  0
 10 11  1  0
 11 12  1  0
 12 13  1  0
 13 14  1  0
 14 15  1  0
 10 16  1  0
 16 17  1  0
 17 18  1  0
 18 19  2  0
 19 20  1  0
 20 21  2  0
 21 22  1  0
 22 23  1  0
 23 24  2  0
 23 25  1  0
 25 26  1  0
 26 27  1  0
 27 28  1  0
 28 29  1  0
 29 30  1  0
 30 31  1  0
 31 32  1  0
 32 33  1  0
 33 34  2  0
 33 35  1  0
 35 36  1  0
 36 37  2  0
 37 38  1  0
 38 39  2  0
 39 40  1  0
 40 41  1  0
 41 42  1  0
 42 43  1  0
 43 44  1  0
 44 45  1  0
 45 46  1  0
 46 47  1  0
 47 48  1  0
 48 49  1  0
 49 50  1  0
 50 51  1  0
 51 52  1  0
 52 53  1  0
 53 54  1  0
 54 55  1  0
 47 56  1  0
 56 57  2  0
 21 58  1  0
 58 59  2  0
  7  2  1  0
 16  2  1  0
 59  7  1  0
 15 12  1  0
 59 18  1  0
 57 36  1  0
 56 39  1  0
 50 41  1  0
 47 42  1  0
 55 52  1  0
M  END
>  <pIC50>  (688) 
8.47

>  <ChEMBL_ID>  (688) 
CHEMBL1774949

>  <document_journal>  (688) 
Bioorg. Med. Chem.

>  <bao_endpoint>  (688) 
BAO_0000190

>  <potential_duplicate>  (688) 
False

>  <uo_units>  (688) 
UO_0000065

>  <canonical_smiles>  (688) 
O[C@@]12CCCC[C@@]13CCN(CC4CCC4)[C@@H]2Cc5ccc(OC(=O)CCCCCCCCC(=O)Oc6ccc7C[C@@H]8[C@@H]9CCCC[C@]9(CCN8CC%10CCC%10)c7c6)cc35

>  <parent_molecule_chembl_id>  (688) 
CHEMBL1774949

>  <assay_type>  (688) 
F

>  <src_id>  (688) 
1

>  <ligand_efficiency>  (688) 
None

>  <standard_flag>  (688) 
True

>  <molecule_chembl_id>  (688) 
CHEMBL1774949

>  <target_organism>  (688) 
Homo sapiens

>  <standard_units>  (688) 
nM

>  <record_id>  (688) 
1423099

>  <document_chembl_id>  (688) 
CHEMBL1772956

>  <bao_format>  (688) 
BAO_0000219

>  <data_validity_description>  (688) 
None

>  <activity_id>  (688) 
6192826

>  <standard_type>  (688) 
IC50

>  <target_chembl_id>  (688) 
CHEMBL233

>  <data_validity_comment>  (688) 
None

>  <published_value>  (688) 
3.4

>  <document_year>  (688) 
2011

>  <target_pref_name>  (688) 
Mu opioid receptor

>  <assay_chembl_id>  (688) 
CHEMBL1777023

>  <standard_relation>  (688) 
=

>  <assay_description>  (688) 
Antagonist activity at human mu-opioid receptor expressed in CHO cells assessed as inhibition of DAMGO-induced [35S]GTPgammaS binding after 60 mins by scintillation counting

>  <published_relation>  (688) 
=

>  <standard_value>  (688) 
3.4

>  <qudt_units>  (688) 
http://www.openphacts.org/units/Nanomolar

>  <target_tax_id>  (688) 
9606

>  <bao_label>  (688) 
cell-based format

>  <published_units>  (688) 
nM

>  <pchembl_value>  (688) 
8.47

>  <published_type>  (688) 
IC50

>  <activity_comment>  (688) 
None

$$$$

     RDKit          

 61 70  0  0  0  0  0  0  0  0999 V2000
    0.0000    0.0000    0.0000 C   0  0  0  0  0  0  0  0  0  0  0  0
    0.0000    0.0000    0.0000 O   0  0  0  0  0  0  0  0  0  0  0  0
    0.0000    0.0000    0.0000 C   0  0  0  0  0  0  0  0  0  0  0  0
    0.0000    0.0000    0.0000 C   0  0  0  0  0  0  0  0  0  0  0  0
    0.0000    0.0000    0.0000 C   0  0  0  0  0  0  0  0  0  0  0  0
    0.0000    0.0000    0.0000 C   0  0  0  0  0  0  0  0  0  0  0  0
    0.0000    0.0000    0.0000 C   0  0  0  0  0  0  0  0  0  0  0  0
    0.0000    0.0000    0.0000 C   0  0  0  0  0  0  0  0  0  0  0  0
    0.0000    0.0000    0.0000 C   0  0  0  0  0  0  0  0  0  0  0  0
    0.0000    0.0000    0.0000 C   0  0  0  0  0  0  0  0  0  0  0  0
    0.0000    0.0000    0.0000 N   0  0  0  0  0  0  0  0  0  0  0  0
    0.0000    0.0000    0.0000 C   0  0  0  0  0  0  0  0  0  0  0  0
    0.0000    0.0000    0.0000 C   0  0  0  0  0  0  0  0  0  0  0  0
    0.0000    0.0000    0.0000 C   0  0  0  0  0  0  0  0  0  0  0  0
    0.0000    0.0000    0.0000 C   0  0  0  0  0  0  0  0  0  0  0  0
    0.0000    0.0000    0.0000 C   0  0  0  0  0  0  0  0  0  0  0  0
    0.0000    0.0000    0.0000 C   0  0  0  0  0  0  0  0  0  0  0  0
    0.0000    0.0000    0.0000 C   0  0  0  0  0  0  0  0  0  0  0  0
    0.0000    0.0000    0.0000 C   0  0  0  0  0  0  0  0  0  0  0  0
    0.0000    0.0000    0.0000 C   0  0  0  0  0  0  0  0  0  0  0  0
    0.0000    0.0000    0.0000 C   0  0  0  0  0  0  0  0  0  0  0  0
    0.0000    0.0000    0.0000 C   0  0  0  0  0  0  0  0  0  0  0  0
    0.0000    0.0000    0.0000 O   0  0  0  0  0  0  0  0  0  0  0  0
    0.0000    0.0000    0.0000 C   0  0  0  0  0  0  0  0  0  0  0  0
    0.0000    0.0000    0.0000 O   0  0  0  0  0  0  0  0  0  0  0  0
    0.0000    0.0000    0.0000 C   0  0  0  0  0  0  0  0  0  0  0  0
    0.0000    0.0000    0.0000 C   0  0  0  0  0  0  0  0  0  0  0  0
    0.0000    0.0000    0.0000 C   0  0  0  0  0  0  0  0  0  0  0  0
    0.0000    0.0000    0.0000 C   0  0  0  0  0  0  0  0  0  0  0  0
    0.0000    0.0000    0.0000 C   0  0  0  0  0  0  0  0  0  0  0  0
    0.0000    0.0000    0.0000 C   0  0  0  0  0  0  0  0  0  0  0  0
    0.0000    0.0000    0.0000 C   0  0  0  0  0  0  0  0  0  0  0  0
    0.0000    0.0000    0.0000 C   0  0  0  0  0  0  0  0  0  0  0  0
    0.0000    0.0000    0.0000 C   0  0  0  0  0  0  0  0  0  0  0  0
    0.0000    0.0000    0.0000 O   0  0  0  0  0  0  0  0  0  0  0  0
    0.0000    0.0000    0.0000 O   0  0  0  0  0  0  0  0  0  0  0  0
    0.0000    0.0000    0.0000 C   0  0  0  0  0  0  0  0  0  0  0  0
    0.0000    0.0000    0.0000 C   0  0  0  0  0  0  0  0  0  0  0  0
    0.0000    0.0000    0.0000 C   0  0  0  0  0  0  0  0  0  0  0  0
    0.0000    0.0000    0.0000 C   0  0  0  0  0  0  0  0  0  0  0  0
    0.0000    0.0000    0.0000 C   0  0  0  0  0  0  0  0  0  0  0  0
    0.0000    0.0000    0.0000 C   0  0  0  0  0  0  0  0  0  0  0  0
    0.0000    0.0000    0.0000 N   0  0  0  0  0  0  0  0  0  0  0  0
    0.0000    0.0000    0.0000 C   0  0  0  0  0  0  0  0  0  0  0  0
    0.0000    0.0000    0.0000 C   0  0  0  0  0  0  0  0  0  0  0  0
    0.0000    0.0000    0.0000 C   0  0  0  0  0  0  0  0  0  0  0  0
    0.0000    0.0000    0.0000 C   0  0  0  0  0  0  0  0  0  0  0  0
    0.0000    0.0000    0.0000 C   0  0  0  0  0  0  0  0  0  0  0  0
    0.0000    0.0000    0.0000 C   0  0  0  0  0  0  0  0  0  0  0  0
    0.0000    0.0000    0.0000 C   0  0  0  0  0  0  0  0  0  0  0  0
    0.0000    0.0000    0.0000 O   0  0  0  0  0  0  0  0  0  0  0  0
    0.0000    0.0000    0.0000 C   0  0  0  0  0  0  0  0  0  0  0  0
    0.0000    0.0000    0.0000 C   0  0  0  0  0  0  0  0  0  0  0  0
    0.0000    0.0000    0.0000 C   0  0  0  0  0  0  0  0  0  0  0  0
    0.0000    0.0000    0.0000 O   0  0  0  0  0  0  0  0  0  0  0  0
    0.0000    0.0000    0.0000 C   0  0  0  0  0  0  0  0  0  0  0  0
    0.0000    0.0000    0.0000 C   0  0  0  0  0  0  0  0  0  0  0  0
    0.0000    0.0000    0.0000 C   0  0  0  0  0  0  0  0  0  0  0  0
    0.0000    0.0000    0.0000 O   0  0  0  0  0  0  0  0  0  0  0  0
    0.0000    0.0000    0.0000 C   0  0  0  0  0  0  0  0  0  0  0  0
    0.0000    0.0000    0.0000 C   0  0  0  0  0  0  0  0  0  0  0  0
  1  2  1  0
  2  3  1  0
  3  4  1  0
  4  5  1  0
  5  6  1  0
  6  7  1  0
  7  8  1  0
  8  9  1  0
  9 10  1  0
 10 11  1  0
 11 12  1  0
 12 13  1  0
 13 14  1  0
 14 15  1  0
 15 16  1  0
 11 17  1  0
 17 18  1  0
 18 19  1  0
 19 20  2  0
 20 21  1  0
 21 22  2  0
 22 23  1  0
 23 24  1  0
 24 25  2  0
 24 26  1  0
 26 27  1  0
 27 28  1  0
 28 29  1  0
 29 30  1  0
 30 31  1  0
 31 32  1  0
 32 33  1  0
 33 34  1  0
 34 35  2  0
 34 36  1  0
 36 37  1  0
 37 38  2  0
 38 39  1  0
 39 40  2  0
 40 41  1  0
 41 42  1  0
 42 43  1  0
 43 44  1  0
 44 45  1  0
 45 46  2  0
 43 47  1  0
 47 48  1  0
 48 49  1  0
 49 50  1  0
 50 51  1  0
 51 52  1  0
 52 53  2  0
 50 54  1  0
 54 55  2  0
 54 56  1  0
 56 57  1  0
 57 58  1  0
 58 59  1  0
 22 60  1  0
 60 61  2  0
  8  3  1  0
 17  3  1  0
 61  8  1  0
 16 13  1  0
 61 19  1  0
 52 37  1  0
 53 40  1  0
 58 42  1  0
 53 49  1  0
 58 49  1  0
M  END
>  <pIC50>  (689) 
7.72

>  <ChEMBL_ID>  (689) 
CHEMBL1774948

>  <document_journal>  (689) 
Bioorg. Med. Chem.

>  <bao_endpoint>  (689) 
BAO_0000190

>  <potential_duplicate>  (689) 
False

>  <uo_units>  (689) 
UO_0000065

>  <canonical_smiles>  (689) 
CO[C@@]12CCCC[C@@]13CCN(CC4CCC4)[C@@H]2Cc5ccc(OC(=O)CCCCCCCCC(=O)Oc6ccc7C[C@H]8N(CC=C)CC[C@@]9%10[C@@H](Oc6c79)C(=O)CC[C@@]8%10O)cc35

>  <parent_molecule_chembl_id>  (689) 
CHEMBL1774948

>  <assay_type>  (689) 
F

>  <src_id>  (689) 
1

>  <ligand_efficiency>  (689) 
None

>  <standard_flag>  (689) 
True

>  <molecule_chembl_id>  (689) 
CHEMBL1774948

>  <target_organism>  (689) 
Homo sapiens

>  <standard_units>  (689) 
nM

>  <record_id>  (689) 
1423098

>  <document_chembl_id>  (689) 
CHEMBL1772956

>  <bao_format>  (689) 
BAO_0000219

>  <data_validity_description>  (689) 
None

>  <activity_id>  (689) 
6192827

>  <standard_type>  (689) 
IC50

>  <target_chembl_id>  (689) 
CHEMBL233

>  <data_validity_comment>  (689) 
None

>  <published_value>  (689) 
19

>  <document_year>  (689) 
2011

>  <target_pref_name>  (689) 
Mu opioid receptor

>  <assay_chembl_id>  (689) 
CHEMBL1777023

>  <standard_relation>  (689) 
=

>  <assay_description>  (689) 
Antagonist activity at human mu-opioid receptor expressed in CHO cells assessed as inhibition of DAMGO-induced [35S]GTPgammaS binding after 60 mins by scintillation counting

>  <published_relation>  (689) 
=

>  <standard_value>  (689) 
19

>  <qudt_units>  (689) 
http://www.openphacts.org/units/Nanomolar

>  <target_tax_id>  (689) 
9606

>  <bao_label>  (689) 
cell-based format

>  <published_units>  (689) 
nM

>  <pchembl_value>  (689) 
7.72

>  <published_type>  (689) 
IC50

>  <activity_comment>  (689) 
None

$$$$

     RDKit          

 45 50  0  0  0  0  0  0  0  0999 V2000
    0.0000    0.0000    0.0000 C   0  0  0  0  0  0  0  0  0  0  0  0
    0.0000    0.0000    0.0000 O   0  0  0  0  0  0  0  0  0  0  0  0
    0.0000    0.0000    0.0000 C   0  0  0  0  0  0  0  0  0  0  0  0
    0.0000    0.0000    0.0000 C   0  0  0  0  0  0  0  0  0  0  0  0
    0.0000    0.0000    0.0000 C   0  0  0  0  0  0  0  0  0  0  0  0
    0.0000    0.0000    0.0000 C   0  0  0  0  0  0  0  0  0  0  0  0
    0.0000    0.0000    0.0000 C   0  0  0  0  0  0  0  0  0  0  0  0
    0.0000    0.0000    0.0000 C   0  0  0  0  0  0  0  0  0  0  0  0
    0.0000    0.0000    0.0000 C   0  0  0  0  0  0  0  0  0  0  0  0
    0.0000    0.0000    0.0000 C   0  0  0  0  0  0  0  0  0  0  0  0
    0.0000    0.0000    0.0000 N   0  0  0  0  0  0  0  0  0  0  0  0
    0.0000    0.0000    0.0000 C   0  0  0  0  0  0  0  0  0  0  0  0
    0.0000    0.0000    0.0000 C   0  0  0  0  0  0  0  0  0  0  0  0
    0.0000    0.0000    0.0000 C   0  0  0  0  0  0  0  0  0  0  0  0
    0.0000    0.0000    0.0000 C   0  0  0  0  0  0  0  0  0  0  0  0
    0.0000    0.0000    0.0000 C   0  0  0  0  0  0  0  0  0  0  0  0
    0.0000    0.0000    0.0000 C   0  0  0  0  0  0  0  0  0  0  0  0
    0.0000    0.0000    0.0000 C   0  0  0  0  0  0  0  0  0  0  0  0
    0.0000    0.0000    0.0000 C   0  0  0  0  0  0  0  0  0  0  0  0
    0.0000    0.0000    0.0000 C   0  0  0  0  0  0  0  0  0  0  0  0
    0.0000    0.0000    0.0000 C   0  0  0  0  0  0  0  0  0  0  0  0
    0.0000    0.0000    0.0000 C   0  0  0  0  0  0  0  0  0  0  0  0
    0.0000    0.0000    0.0000 O   0  0  0  0  0  0  0  0  0  0  0  0
    0.0000    0.0000    0.0000 C   0  0  0  0  0  0  0  0  0  0  0  0
    0.0000    0.0000    0.0000 O   0  0  0  0  0  0  0  0  0  0  0  0
    0.0000    0.0000    0.0000 C   0  0  0  0  0  0  0  0  0  0  0  0
    0.0000    0.0000    0.0000 C   0  0  0  0  0  0  0  0  0  0  0  0
    0.0000    0.0000    0.0000 C   0  0  0  0  0  0  0  0  0  0  0  0
    0.0000    0.0000    0.0000 C   0  0  0  0  0  0  0  0  0  0  0  0
    0.0000    0.0000    0.0000 C   0  0  0  0  0  0  0  0  0  0  0  0
    0.0000    0.0000    0.0000 C   0  0  0  0  0  0  0  0  0  0  0  0
    0.0000    0.0000    0.0000 C   0  0  0  0  0  0  0  0  0  0  0  0
    0.0000    0.0000    0.0000 C   0  0  0  0  0  0  0  0  0  0  0  0
    0.0000    0.0000    0.0000 C   0  0  0  0  0  0  0  0  0  0  0  0
    0.0000    0.0000    0.0000 O   0  0  0  0  0  0  0  0  0  0  0  0
    0.0000    0.0000    0.0000 O   0  0  0  0  0  0  0  0  0  0  0  0
    0.0000    0.0000    0.0000 C   0  0  0  0  0  0  0  0  0  0  0  0
    0.0000    0.0000    0.0000 C   0  0  0  0  0  0  0  0  0  0  0  0
    0.0000    0.0000    0.0000 C   0  0  0  0  0  0  0  0  0  0  0  0
    0.0000    0.0000    0.0000 C   0  0  0  0  0  0  0  0  0  0  0  0
    0.0000    0.0000    0.0000 C   0  0  0  0  0  0  0  0  0  0  0  0
    0.0000    0.0000    0.0000 C   0  0  0  0  0  0  0  0  0  0  0  0
    0.0000    0.0000    0.0000 C   0  0  0  0  0  0  0  0  0  0  0  0
    0.0000    0.0000    0.0000 C   0  0  0  0  0  0  0  0  0  0  0  0
    0.0000    0.0000    0.0000 C   0  0  0  0  0  0  0  0  0  0  0  0
  1  2  1  0
  2  3  1  0
  3  4  1  0
  4  5  1  0
  5  6  1  0
  6  7  1  0
  7  8  1  0
  8  9  1  0
  9 10  1  0
 10 11  1  0
 11 12  1  0
 12 13  1  0
 13 14  1  0
 14 15  1  0
 15 16  1  0
 11 17  1  0
 17 18  1  0
 18 19  1  0
 19 20  2  0
 20 21  1  0
 21 22  2  0
 22 23  1  0
 23 24  1  0
 24 25  2  0
 24 26  1  0
 26 27  1  0
 27 28  1  0
 28 29  1  0
 29 30  1  0
 30 31  1  0
 31 32  1  0
 32 33  1  0
 33 34  1  0
 34 35  2  0
 34 36  1  0
 36 37  1  0
 37 38  1  0
 38 39  2  0
 39 40  1  0
 40 41  2  0
 41 42  1  0
 42 43  2  0
 22 44  1  0
 44 45  2  0
  8  3  1  0
 17  3  1  0
 45  8  1  0
 16 13  1  0
 45 19  1  0
 43 38  1  0
M  END
>  <pIC50>  (690) 
8.12

>  <ChEMBL_ID>  (690) 
CHEMBL1773091

>  <document_journal>  (690) 
Bioorg. Med. Chem.

>  <bao_endpoint>  (690) 
BAO_0000190

>  <potential_duplicate>  (690) 
False

>  <uo_units>  (690) 
UO_0000065

>  <canonical_smiles>  (690) 
CO[C@@]12CCCC[C@@]13CCN(CC4CCC4)[C@@H]2Cc5ccc(OC(=O)CCCCCCCCC(=O)OCc6ccccc6)cc35

>  <parent_molecule_chembl_id>  (690) 
CHEMBL1773091

>  <assay_type>  (690) 
F

>  <src_id>  (690) 
1

>  <ligand_efficiency>  (690) 
None

>  <standard_flag>  (690) 
True

>  <molecule_chembl_id>  (690) 
CHEMBL1773091

>  <target_organism>  (690) 
Homo sapiens

>  <standard_units>  (690) 
nM

>  <record_id>  (690) 
1423097

>  <document_chembl_id>  (690) 
CHEMBL1772956

>  <bao_format>  (690) 
BAO_0000219

>  <data_validity_description>  (690) 
None

>  <activity_id>  (690) 
6192828

>  <standard_type>  (690) 
IC50

>  <target_chembl_id>  (690) 
CHEMBL233

>  <data_validity_comment>  (690) 
None

>  <published_value>  (690) 
7.6

>  <document_year>  (690) 
2011

>  <target_pref_name>  (690) 
Mu opioid receptor

>  <assay_chembl_id>  (690) 
CHEMBL1777023

>  <standard_relation>  (690) 
=

>  <assay_description>  (690) 
Antagonist activity at human mu-opioid receptor expressed in CHO cells assessed as inhibition of DAMGO-induced [35S]GTPgammaS binding after 60 mins by scintillation counting

>  <published_relation>  (690) 
=

>  <standard_value>  (690) 
7.6

>  <qudt_units>  (690) 
http://www.openphacts.org/units/Nanomolar

>  <target_tax_id>  (690) 
9606

>  <bao_label>  (690) 
cell-based format

>  <published_units>  (690) 
nM

>  <pchembl_value>  (690) 
8.12

>  <published_type>  (690) 
IC50

>  <activity_comment>  (690) 
None

$$$$

     RDKit          

 62 71  0  0  0  0  0  0  0  0999 V2000
    0.0000    0.0000    0.0000 C   0  0  0  0  0  0  0  0  0  0  0  0
    0.0000    0.0000    0.0000 O   0  0  0  0  0  0  0  0  0  0  0  0
    0.0000    0.0000    0.0000 C   0  0  0  0  0  0  0  0  0  0  0  0
    0.0000    0.0000    0.0000 C   0  0  0  0  0  0  0  0  0  0  0  0
    0.0000    0.0000    0.0000 C   0  0  0  0  0  0  0  0  0  0  0  0
    0.0000    0.0000    0.0000 C   0  0  0  0  0  0  0  0  0  0  0  0
    0.0000    0.0000    0.0000 C   0  0  0  0  0  0  0  0  0  0  0  0
    0.0000    0.0000    0.0000 C   0  0  0  0  0  0  0  0  0  0  0  0
    0.0000    0.0000    0.0000 C   0  0  0  0  0  0  0  0  0  0  0  0
    0.0000    0.0000    0.0000 C   0  0  0  0  0  0  0  0  0  0  0  0
    0.0000    0.0000    0.0000 N   0  0  0  0  0  0  0  0  0  0  0  0
    0.0000    0.0000    0.0000 C   0  0  0  0  0  0  0  0  0  0  0  0
    0.0000    0.0000    0.0000 C   0  0  0  0  0  0  0  0  0  0  0  0
    0.0000    0.0000    0.0000 C   0  0  0  0  0  0  0  0  0  0  0  0
    0.0000    0.0000    0.0000 C   0  0  0  0  0  0  0  0  0  0  0  0
    0.0000    0.0000    0.0000 C   0  0  0  0  0  0  0  0  0  0  0  0
    0.0000    0.0000    0.0000 C   0  0  0  0  0  0  0  0  0  0  0  0
    0.0000    0.0000    0.0000 C   0  0  0  0  0  0  0  0  0  0  0  0
    0.0000    0.0000    0.0000 C   0  0  0  0  0  0  0  0  0  0  0  0
    0.0000    0.0000    0.0000 C   0  0  0  0  0  0  0  0  0  0  0  0
    0.0000    0.0000    0.0000 C   0  0  0  0  0  0  0  0  0  0  0  0
    0.0000    0.0000    0.0000 C   0  0  0  0  0  0  0  0  0  0  0  0
    0.0000    0.0000    0.0000 O   0  0  0  0  0  0  0  0  0  0  0  0
    0.0000    0.0000    0.0000 C   0  0  0  0  0  0  0  0  0  0  0  0
    0.0000    0.0000    0.0000 O   0  0  0  0  0  0  0  0  0  0  0  0
    0.0000    0.0000    0.0000 C   0  0  0  0  0  0  0  0  0  0  0  0
    0.0000    0.0000    0.0000 C   0  0  0  0  0  0  0  0  0  0  0  0
    0.0000    0.0000    0.0000 C   0  0  0  0  0  0  0  0  0  0  0  0
    0.0000    0.0000    0.0000 C   0  0  0  0  0  0  0  0  0  0  0  0
    0.0000    0.0000    0.0000 C   0  0  0  0  0  0  0  0  0  0  0  0
    0.0000    0.0000    0.0000 C   0  0  0  0  0  0  0  0  0  0  0  0
    0.0000    0.0000    0.0000 C   0  0  0  0  0  0  0  0  0  0  0  0
    0.0000    0.0000    0.0000 C   0  0  0  0  0  0  0  0  0  0  0  0
    0.0000    0.0000    0.0000 C   0  0  0  0  0  0  0  0  0  0  0  0
    0.0000    0.0000    0.0000 O   0  0  0  0  0  0  0  0  0  0  0  0
    0.0000    0.0000    0.0000 O   0  0  0  0  0  0  0  0  0  0  0  0
    0.0000    0.0000    0.0000 C   0  0  0  0  0  0  0  0  0  0  0  0
    0.0000    0.0000    0.0000 C   0  0  0  0  0  0  0  0  0  0  0  0
    0.0000    0.0000    0.0000 C   0  0  0  0  0  0  0  0  0  0  0  0
    0.0000    0.0000    0.0000 C   0  0  0  0  0  0  0  0  0  0  0  0
    0.0000    0.0000    0.0000 C   0  0  0  0  0  0  0  0  0  0  0  0
    0.0000    0.0000    0.0000 C   0  0  0  0  0  0  0  0  0  0  0  0
    0.0000    0.0000    0.0000 N   0  0  0  0  0  0  0  0  0  0  0  0
    0.0000    0.0000    0.0000 C   0  0  0  0  0  0  0  0  0  0  0  0
    0.0000    0.0000    0.0000 C   0  0  0  0  0  0  0  0  0  0  0  0
    0.0000    0.0000    0.0000 C   0  0  0  0  0  0  0  0  0  0  0  0
    0.0000    0.0000    0.0000 C   0  0  0  0  0  0  0  0  0  0  0  0
    0.0000    0.0000    0.0000 C   0  0  0  0  0  0  0  0  0  0  0  0
    0.0000    0.0000    0.0000 C   0  0  0  0  0  0  0  0  0  0  0  0
    0.0000    0.0000    0.0000 C   0  0  0  0  0  0  0  0  0  0  0  0
    0.0000    0.0000    0.0000 C   0  0  0  0  0  0  0  0  0  0  0  0
    0.0000    0.0000    0.0000 C   0  0  0  0  0  0  0  0  0  0  0  0
    0.0000    0.0000    0.0000 C   0  0  0  0  0  0  0  0  0  0  0  0
    0.0000    0.0000    0.0000 C   0  0  0  0  0  0  0  0  0  0  0  0
    0.0000    0.0000    0.0000 C   0  0  0  0  0  0  0  0  0  0  0  0
    0.0000    0.0000    0.0000 C   0  0  0  0  0  0  0  0  0  0  0  0
    0.0000    0.0000    0.0000 O   0  0  0  0  0  0  0  0  0  0  0  0
    0.0000    0.0000    0.0000 C   0  0  0  0  0  0  0  0  0  0  0  0
    0.0000    0.0000    0.0000 C   0  0  0  0  0  0  0  0  0  0  0  0
    0.0000    0.0000    0.0000 C   0  0  0  0  0  0  0  0  0  0  0  0
    0.0000    0.0000    0.0000 C   0  0  0  0  0  0  0  0  0  0  0  0
    0.0000    0.0000    0.0000 C   0  0  0  0  0  0  0  0  0  0  0  0
  1  2  1  0
  2  3  1  0
  3  4  1  0
  4  5  1  0
  5  6  1  0
  6  7  1  0
  7  8  1  0
  8  9  1  0
  9 10  1  0
 10 11  1  0
 11 12  1  0
 12 13  1  0
 13 14  1  0
 14 15  1  0
 15 16  1  0
 11 17  1  0
 17 18  1  0
 18 19  1  0
 19 20  2  0
 20 21  1  0
 21 22  2  0
 22 23  1  0
 23 24  1  0
 24 25  2  0
 24 26  1  0
 26 27  1  0
 27 28  1  0
 28 29  1  0
 29 30  1  0
 30 31  1  0
 31 32  1  0
 32 33  1  0
 33 34  1  0
 34 35  2  0
 34 36  1  0
 36 37  1  0
 37 38  2  0
 38 39  1  0
 39 40  2  0
 40 41  1  0
 41 42  1  0
 42 43  1  0
 43 44  1  0
 44 45  1  0
 45 46  1  0
 46 47  1  0
 47 48  1  0
 43 49  1  0
 49 50  1  0
 50 51  1  0
 51 52  1  0
 52 53  1  0
 53 54  1  0
 54 55  1  0
 55 56  1  0
 56 57  1  0
 57 58  1  0
 51 59  1  0
 59 60  2  0
 22 61  1  0
 61 62  2  0
  8  3  1  0
 17  3  1  0
 62  8  1  0
 16 13  1  0
 62 19  1  0
 60 37  1  0
 59 40  1  0
 56 42  1  0
 48 45  1  0
 56 51  1  0
M  END
>  <pIC50>  (691) 
6.59

>  <ChEMBL_ID>  (691) 
CHEMBL1774947

>  <document_journal>  (691) 
Bioorg. Med. Chem.

>  <bao_endpoint>  (691) 
BAO_0000190

>  <potential_duplicate>  (691) 
False

>  <uo_units>  (691) 
UO_0000065

>  <canonical_smiles>  (691) 
CO[C@@]12CCCC[C@@]13CCN(CC4CCC4)[C@@H]2Cc5ccc(OC(=O)CCCCCCCCC(=O)Oc6ccc7C[C@H]8N(CC9CCC9)CC[C@@]%10(CCCC[C@@]8%10OC)c7c6)cc35

>  <parent_molecule_chembl_id>  (691) 
CHEMBL1774947

>  <assay_type>  (691) 
F

>  <src_id>  (691) 
1

>  <ligand_efficiency>  (691) 
None

>  <standard_flag>  (691) 
True

>  <molecule_chembl_id>  (691) 
CHEMBL1774947

>  <target_organism>  (691) 
Homo sapiens

>  <standard_units>  (691) 
nM

>  <record_id>  (691) 
1423096

>  <document_chembl_id>  (691) 
CHEMBL1772956

>  <bao_format>  (691) 
BAO_0000219

>  <data_validity_description>  (691) 
None

>  <activity_id>  (691) 
6192829

>  <standard_type>  (691) 
IC50

>  <target_chembl_id>  (691) 
CHEMBL233

>  <data_validity_comment>  (691) 
None

>  <published_value>  (691) 
260

>  <document_year>  (691) 
2011

>  <target_pref_name>  (691) 
Mu opioid receptor

>  <assay_chembl_id>  (691) 
CHEMBL1777023

>  <standard_relation>  (691) 
=

>  <assay_description>  (691) 
Antagonist activity at human mu-opioid receptor expressed in CHO cells assessed as inhibition of DAMGO-induced [35S]GTPgammaS binding after 60 mins by scintillation counting

>  <published_relation>  (691) 
=

>  <standard_value>  (691) 
260

>  <qudt_units>  (691) 
http://www.openphacts.org/units/Nanomolar

>  <target_tax_id>  (691) 
9606

>  <bao_label>  (691) 
cell-based format

>  <published_units>  (691) 
nM

>  <pchembl_value>  (691) 
6.59

>  <published_type>  (691) 
IC50

>  <activity_comment>  (691) 
None

$$$$

     RDKit          

 25 29  0  0  0  0  0  0  0  0999 V2000
    0.0000    0.0000    0.0000 C   0  0  0  0  0  0  0  0  0  0  0  0
    0.0000    0.0000    0.0000 O   0  0  0  0  0  0  0  0  0  0  0  0
    0.0000    0.0000    0.0000 C   0  0  0  0  0  0  0  0  0  0  0  0
    0.0000    0.0000    0.0000 C   0  0  0  0  0  0  0  0  0  0  0  0
    0.0000    0.0000    0.0000 C   0  0  0  0  0  0  0  0  0  0  0  0
    0.0000    0.0000    0.0000 C   0  0  0  0  0  0  0  0  0  0  0  0
    0.0000    0.0000    0.0000 C   0  0  0  0  0  0  0  0  0  0  0  0
    0.0000    0.0000    0.0000 C   0  0  0  0  0  0  0  0  0  0  0  0
    0.0000    0.0000    0.0000 C   0  0  0  0  0  0  0  0  0  0  0  0
    0.0000    0.0000    0.0000 C   0  0  0  0  0  0  0  0  0  0  0  0
    0.0000    0.0000    0.0000 N   0  0  0  0  0  0  0  0  0  0  0  0
    0.0000    0.0000    0.0000 C   0  0  0  0  0  0  0  0  0  0  0  0
    0.0000    0.0000    0.0000 C   0  0  0  0  0  0  0  0  0  0  0  0
    0.0000    0.0000    0.0000 C   0  0  0  0  0  0  0  0  0  0  0  0
    0.0000    0.0000    0.0000 C   0  0  0  0  0  0  0  0  0  0  0  0
    0.0000    0.0000    0.0000 C   0  0  0  0  0  0  0  0  0  0  0  0
    0.0000    0.0000    0.0000 C   0  0  0  0  0  0  0  0  0  0  0  0
    0.0000    0.0000    0.0000 C   0  0  0  0  0  0  0  0  0  0  0  0
    0.0000    0.0000    0.0000 C   0  0  0  0  0  0  0  0  0  0  0  0
    0.0000    0.0000    0.0000 C   0  0  0  0  0  0  0  0  0  0  0  0
    0.0000    0.0000    0.0000 C   0  0  0  0  0  0  0  0  0  0  0  0
    0.0000    0.0000    0.0000 C   0  0  0  0  0  0  0  0  0  0  0  0
    0.0000    0.0000    0.0000 O   0  0  0  0  0  0  0  0  0  0  0  0
    0.0000    0.0000    0.0000 C   0  0  0  0  0  0  0  0  0  0  0  0
    0.0000    0.0000    0.0000 C   0  0  0  0  0  0  0  0  0  0  0  0
  1  2  1  0
  2  3  1  0
  3  4  1  0
  4  5  1  0
  5  6  1  0
  6  7  1  0
  7  8  1  0
  8  9  1  0
  9 10  1  0
 10 11  1  0
 11 12  1  0
 12 13  1  0
 13 14  1  0
 14 15  1  0
 15 16  1  0
 11 17  1  0
 17 18  1  0
 18 19  1  0
 19 20  2  0
 20 21  1  0
 21 22  2  0
 22 23  1  0
 22 24  1  0
 24 25  2  0
  8  3  1  0
 17  3  1  0
 25  8  1  0
 16 13  1  0
 25 19  1  0
M  END
>  <pIC50>  (692) 
8.03

>  <ChEMBL_ID>  (692) 
CHEMBL1774946

>  <document_journal>  (692) 
Bioorg. Med. Chem.

>  <bao_endpoint>  (692) 
BAO_0000190

>  <potential_duplicate>  (692) 
False

>  <uo_units>  (692) 
UO_0000065

>  <canonical_smiles>  (692) 
CO[C@@]12CCCC[C@@]13CCN(CC4CCC4)[C@@H]2Cc5ccc(O)cc35

>  <parent_molecule_chembl_id>  (692) 
CHEMBL1774946

>  <assay_type>  (692) 
F

>  <src_id>  (692) 
1

>  <ligand_efficiency>  (692) 
None

>  <standard_flag>  (692) 
True

>  <molecule_chembl_id>  (692) 
CHEMBL1774946

>  <target_organism>  (692) 
Homo sapiens

>  <standard_units>  (692) 
nM

>  <record_id>  (692) 
1423093

>  <document_chembl_id>  (692) 
CHEMBL1772956

>  <bao_format>  (692) 
BAO_0000219

>  <data_validity_description>  (692) 
None

>  <activity_id>  (692) 
6192830

>  <standard_type>  (692) 
IC50

>  <target_chembl_id>  (692) 
CHEMBL233

>  <data_validity_comment>  (692) 
None

>  <published_value>  (692) 
9.3

>  <document_year>  (692) 
2011

>  <target_pref_name>  (692) 
Mu opioid receptor

>  <assay_chembl_id>  (692) 
CHEMBL1777023

>  <standard_relation>  (692) 
=

>  <assay_description>  (692) 
Antagonist activity at human mu-opioid receptor expressed in CHO cells assessed as inhibition of DAMGO-induced [35S]GTPgammaS binding after 60 mins by scintillation counting

>  <published_relation>  (692) 
=

>  <standard_value>  (692) 
9.3

>  <qudt_units>  (692) 
http://www.openphacts.org/units/Nanomolar

>  <target_tax_id>  (692) 
9606

>  <bao_label>  (692) 
cell-based format

>  <published_units>  (692) 
nM

>  <pchembl_value>  (692) 
8.03

>  <published_type>  (692) 
IC50

>  <activity_comment>  (692) 
None

$$$$

     RDKit          

 22 22  0  0  0  0  0  0  0  0999 V2000
    0.0000    0.0000    0.0000 C   0  0  0  0  0  0  0  0  0  0  0  0
    0.0000    0.0000    0.0000 C   0  0  0  0  0  0  0  0  0  0  0  0
    0.0000    0.0000    0.0000 C   0  0  0  0  0  0  0  0  0  0  0  0
    0.0000    0.0000    0.0000 C   0  0  0  0  0  0  0  0  0  0  0  0
    0.0000    0.0000    0.0000 C   0  0  0  0  0  0  0  0  0  0  0  0
    0.0000    0.0000    0.0000 C   0  0  0  0  0  0  0  0  0  0  0  0
    0.0000    0.0000    0.0000 C   0  0  0  0  0  0  0  0  0  0  0  0
    0.0000    0.0000    0.0000 C   0  0  0  0  0  0  0  0  0  0  0  0
    0.0000    0.0000    0.0000 C   0  0  0  0  0  0  0  0  0  0  0  0
    0.0000    0.0000    0.0000 O   0  0  0  0  0  0  0  0  0  0  0  0
    0.0000    0.0000    0.0000 C   0  0  0  0  0  0  0  0  0  0  0  0
    0.0000    0.0000    0.0000 C   0  0  0  0  0  0  0  0  0  0  0  0
    0.0000    0.0000    0.0000 C   0  0  0  0  0  0  0  0  0  0  0  0
    0.0000    0.0000    0.0000 C   0  0  0  0  0  0  0  0  0  0  0  0
    0.0000    0.0000    0.0000 C   0  0  0  0  0  0  0  0  0  0  0  0
    0.0000    0.0000    0.0000 C   0  0  0  0  0  0  0  0  0  0  0  0
    0.0000    0.0000    0.0000 C   0  0  0  0  0  0  0  0  0  0  0  0
    0.0000    0.0000    0.0000 C   0  0  0  0  0  0  0  0  0  0  0  0
    0.0000    0.0000    0.0000 O   0  0  0  0  0  0  0  0  0  0  0  0
    0.0000    0.0000    0.0000 C   0  0  0  0  0  0  0  0  0  0  0  0
    0.0000    0.0000    0.0000 C   0  0  0  0  0  0  0  0  0  0  0  0
    0.0000    0.0000    0.0000 O   0  0  0  0  0  0  0  0  0  0  0  0
  1  2  1  0
  2  3  1  0
  3  4  1  0
  4  5  1  0
  5  6  1  0
  6  7  2  0
  7  8  1  0
  8  9  2  0
  9 10  1  0
  9 11  1  0
 11 12  2  0
 12 13  1  0
 13 14  1  0
 14 15  2  3
 15 16  1  0
 15 17  1  0
 12 18  1  0
 18 19  1  0
 18 20  2  0
 20 21  1  0
 21 22  2  0
 20  8  1  0
M  END
>  <pIC50>  (693) 
5.14

>  <ChEMBL_ID>  (693) 
CHEMBL1811938

>  <document_journal>  (693) 
J. Nat. Prod.

>  <bao_endpoint>  (693) 
BAO_0000190

>  <potential_duplicate>  (693) 
False

>  <uo_units>  (693) 
UO_0000065

>  <canonical_smiles>  (693) 
CCCCC\C=C\c1c(O)cc(CC=C(C)C)c(O)c1C=O

>  <parent_molecule_chembl_id>  (693) 
CHEMBL1811938

>  <assay_type>  (693) 
B

>  <src_id>  (693) 
1

>  <ligand_efficiency>  (693) 
{u'le': u'0.32', u'bei': u'17.01', u'sei': u'8.94', u'lle': u'-0.6'}

>  <standard_flag>  (693) 
True

>  <molecule_chembl_id>  (693) 
CHEMBL1811938

>  <target_organism>  (693) 
Homo sapiens

>  <standard_units>  (693) 
nM

>  <record_id>  (693) 
1448102

>  <document_chembl_id>  (693) 
CHEMBL1811804

>  <bao_format>  (693) 
BAO_0000219

>  <data_validity_description>  (693) 
None

>  <activity_id>  (693) 
6306021

>  <standard_type>  (693) 
IC50

>  <target_chembl_id>  (693) 
CHEMBL233

>  <data_validity_comment>  (693) 
None

>  <published_value>  (693) 
7.2

>  <document_year>  (693) 
2011

>  <target_pref_name>  (693) 
Mu opioid receptor

>  <assay_chembl_id>  (693) 
CHEMBL1814860

>  <standard_relation>  (693) 
=

>  <assay_description>  (693) 
Displacement of [3H]DAMGO from human mu opioid receptor expressed in CHO-K1 cells after 60 mins by scintillation counting

>  <published_relation>  (693) 
=

>  <standard_value>  (693) 
7200

>  <qudt_units>  (693) 
http://www.openphacts.org/units/Nanomolar

>  <target_tax_id>  (693) 
9606

>  <bao_label>  (693) 
cell-based format

>  <published_units>  (693) 
uM

>  <pchembl_value>  (693) 
5.14

>  <published_type>  (693) 
IC50

>  <activity_comment>  (693) 
None

$$$$

     RDKit          

 59 63  0  0  0  0  0  0  0  0999 V2000
    0.0000    0.0000    0.0000 C   0  0  0  0  0  0  0  0  0  0  0  0
    0.0000    0.0000    0.0000 C   0  0  0  0  0  0  0  0  0  0  0  0
    0.0000    0.0000    0.0000 N   0  0  0  0  0  0  0  0  0  0  0  0
    0.0000    0.0000    0.0000 C   0  0  0  0  0  0  0  0  0  0  0  0
    0.0000    0.0000    0.0000 O   0  0  0  0  0  0  0  0  0  0  0  0
    0.0000    0.0000    0.0000 C   0  0  0  0  0  0  0  0  0  0  0  0
    0.0000    0.0000    0.0000 N   0  0  0  0  0  0  0  0  0  0  0  0
    0.0000    0.0000    0.0000 C   0  0  0  0  0  0  0  0  0  0  0  0
    0.0000    0.0000    0.0000 C   0  0  0  0  0  0  0  0  0  0  0  0
    0.0000    0.0000    0.0000 C   0  0  0  0  0  0  0  0  0  0  0  0
    0.0000    0.0000    0.0000 C   0  0  0  0  0  0  0  0  0  0  0  0
    0.0000    0.0000    0.0000 C   0  0  0  0  0  0  0  0  0  0  0  0
    0.0000    0.0000    0.0000 O   0  0  0  0  0  0  0  0  0  0  0  0
    0.0000    0.0000    0.0000 C   0  0  0  0  0  0  0  0  0  0  0  0
    0.0000    0.0000    0.0000 C   0  0  0  0  0  0  0  0  0  0  0  0
    0.0000    0.0000    0.0000 C   0  0  0  0  0  0  0  0  0  0  0  0
    0.0000    0.0000    0.0000 O   0  0  0  0  0  0  0  0  0  0  0  0
    0.0000    0.0000    0.0000 N   0  0  0  0  0  0  0  0  0  0  0  0
    0.0000    0.0000    0.0000 C   0  0  0  0  0  0  0  0  0  0  0  0
    0.0000    0.0000    0.0000 C   0  0  0  0  0  0  0  0  0  0  0  0
    0.0000    0.0000    0.0000 C   0  0  0  0  0  0  0  0  0  0  0  0
    0.0000    0.0000    0.0000 C   0  0  0  0  0  0  0  0  0  0  0  0
    0.0000    0.0000    0.0000 C   0  0  0  0  0  0  0  0  0  0  0  0
    0.0000    0.0000    0.0000 C   0  0  0  0  0  0  0  0  0  0  0  0
    0.0000    0.0000    0.0000 C   0  0  0  0  0  0  0  0  0  0  0  0
    0.0000    0.0000    0.0000 C   0  0  0  0  0  0  0  0  0  0  0  0
    0.0000    0.0000    0.0000 C   0  0  0  0  0  0  0  0  0  0  0  0
    0.0000    0.0000    0.0000 N   0  0  0  0  0  0  0  0  0  0  0  0
    0.0000    0.0000    0.0000 C   0  0  0  0  0  0  0  0  0  0  0  0
    0.0000    0.0000    0.0000 C   0  0  0  0  0  0  0  0  0  0  0  0
    0.0000    0.0000    0.0000 O   0  0  0  0  0  0  0  0  0  0  0  0
    0.0000    0.0000    0.0000 N   0  0  0  0  0  0  0  0  0  0  0  0
    0.0000    0.0000    0.0000 C   0  0  0  0  0  0  0  0  0  0  0  0
    0.0000    0.0000    0.0000 C   0  0  0  0  0  0  0  0  0  0  0  0
    0.0000    0.0000    0.0000 C   0  0  0  0  0  0  0  0  0  0  0  0
    0.0000    0.0000    0.0000 C   0  0  0  0  0  0  0  0  0  0  0  0
    0.0000    0.0000    0.0000 C   0  0  0  0  0  0  0  0  0  0  0  0
    0.0000    0.0000    0.0000 C   0  0  0  0  0  0  0  0  0  0  0  0
    0.0000    0.0000    0.0000 O   0  0  0  0  0  0  0  0  0  0  0  0
    0.0000    0.0000    0.0000 C   0  0  0  0  0  0  0  0  0  0  0  0
    0.0000    0.0000    0.0000 C   0  0  0  0  0  0  0  0  0  0  0  0
    0.0000    0.0000    0.0000 C   0  0  0  0  0  0  0  0  0  0  0  0
    0.0000    0.0000    0.0000 O   0  0  0  0  0  0  0  0  0  0  0  0
    0.0000    0.0000    0.0000 N   0  0  0  0  0  0  0  0  0  0  0  0
    0.0000    0.0000    0.0000 C   0  0  0  0  0  0  0  0  0  0  0  0
    0.0000    0.0000    0.0000 C   0  0  0  0  0  0  0  0  0  0  0  0
    0.0000    0.0000    0.0000 C   0  0  0  0  0  0  0  0  0  0  0  0
    0.0000    0.0000    0.0000 C   0  0  0  0  0  0  0  0  0  0  0  0
    0.0000    0.0000    0.0000 C   0  0  0  0  0  0  0  0  0  0  0  0
    0.0000    0.0000    0.0000 O   0  0  0  0  0  0  0  0  0  0  0  0
    0.0000    0.0000    0.0000 N   0  0  0  0  0  0  0  0  0  0  0  0
    0.0000    0.0000    0.0000 C   0  0  0  0  0  0  0  0  0  0  0  0
    0.0000    0.0000    0.0000 C   0  0  0  0  0  0  0  0  0  0  0  0
    0.0000    0.0000    0.0000 O   0  0  0  0  0  0  0  0  0  0  0  0
    0.0000    0.0000    0.0000 C   0  0  0  0  0  0  0  0  0  0  0  0
    0.0000    0.0000    0.0000 O   0  0  0  0  0  0  0  0  0  0  0  0
    0.0000    0.0000    0.0000 N   0  0  0  0  0  0  0  0  0  0  0  0
    0.0000    0.0000    0.0000 C   0  0  0  0  0  0  0  0  0  0  0  0
    0.0000    0.0000    0.0000 O   0  0  0  0  0  0  0  0  0  0  0  0
  1  2  1  0
  2  3  1  0
  3  4  1  0
  4  5  2  0
  4  6  1  0
  6  7  1  0
  6  8  1  0
  8  9  1  0
  9 10  2  0
 10 11  1  0
 11 12  2  0
 12 13  1  0
 12 14  1  0
 14 15  2  0
  2 16  1  0
 16 17  2  0
 16 18  1  0
 18 19  1  0
 19 20  1  0
 20 21  1  0
 21 22  2  0
 22 23  1  0
 23 24  2  0
 24 25  1  0
 25 26  2  0
 26 27  1  0
 27 28  1  0
 28 29  1  0
 29 30  1  0
 30 31  2  0
 30 32  1  0
 32 33  1  0
 33 34  1  0
 34 35  1  0
 35 36  2  0
 36 37  1  0
 37 38  2  0
 38 39  1  0
 38 40  1  0
 40 41  2  0
 33 42  1  0
 42 43  2  0
 42 44  1  0
 44 45  1  0
 45 46  1  0
 46 47  1  0
 47 48  1  0
 48 49  1  0
 49 50  2  0
 49 51  1  0
 51 52  1  0
 52 53  1  0
 53 54  1  0
 52 55  1  0
 55 56  2  0
 55 57  1  0
 28 58  1  0
 58 59  2  0
 15  9  1  0
 58 19  1  0
 26 21  1  0
 41 35  1  0
 48 44  1  0
M  END
>  <pIC50>  (694) 
7.96

>  <ChEMBL_ID>  (694) 
CHEMBL1834249

>  <document_journal>  (694) 
J. Med. Chem.

>  <bao_endpoint>  (694) 
BAO_0000190

>  <potential_duplicate>  (694) 
False

>  <uo_units>  (694) 
UO_0000065

>  <canonical_smiles>  (694) 
C[C@@H](NC(=O)[C@@H](N)Cc1ccc(O)cc1)C(=O)NC2Cc3ccccc3CN(CC(=O)N[C@@H](Cc4ccc(O)cc4)C(=O)N5CCC[C@H]5C(=O)N[C@@H](CO)C(=O)N)C2=O

>  <parent_molecule_chembl_id>  (694) 
CHEMBL1834249

>  <assay_type>  (694) 
F

>  <src_id>  (694) 
1

>  <ligand_efficiency>  (694) 
None

>  <standard_flag>  (694) 
True

>  <molecule_chembl_id>  (694) 
CHEMBL1834249

>  <target_organism>  (694) 
Homo sapiens

>  <standard_units>  (694) 
nM

>  <record_id>  (694) 
1460242

>  <document_chembl_id>  (694) 
CHEMBL1833812

>  <bao_format>  (694) 
BAO_0000019

>  <data_validity_description>  (694) 
None

>  <activity_id>  (694) 
6380828

>  <standard_type>  (694) 
IC50

>  <target_chembl_id>  (694) 
CHEMBL233

>  <data_validity_comment>  (694) 
None

>  <published_value>  (694) 
11

>  <document_year>  (694) 
2011

>  <target_pref_name>  (694) 
Mu opioid receptor

>  <assay_chembl_id>  (694) 
CHEMBL1837092

>  <standard_relation>  (694) 
=

>  <assay_description>  (694) 
Agonist activity at Mu-type opioid receptor

>  <published_relation>  (694) 
=

>  <standard_value>  (694) 
11

>  <qudt_units>  (694) 
http://www.openphacts.org/units/Nanomolar

>  <target_tax_id>  (694) 
9606

>  <bao_label>  (694) 
assay format

>  <published_units>  (694) 
nM

>  <pchembl_value>  (694) 
7.96

>  <published_type>  (694) 
IC50

>  <activity_comment>  (694) 
None

$$$$

     RDKit          

 35 38  0  0  0  0  0  0  0  0999 V2000
    0.0000    0.0000    0.0000 C   0  0  0  0  0  0  0  0  0  0  0  0
    0.0000    0.0000    0.0000 C   0  0  0  0  0  0  0  0  0  0  0  0
    0.0000    0.0000    0.0000 N   0  0  0  0  0  0  0  0  0  0  0  0
    0.0000    0.0000    0.0000 C   0  0  0  0  0  0  0  0  0  0  0  0
    0.0000    0.0000    0.0000 C   0  0  0  0  0  0  0  0  0  0  0  0
    0.0000    0.0000    0.0000 C   0  0  0  0  0  0  0  0  0  0  0  0
    0.0000    0.0000    0.0000 C   0  0  0  0  0  0  0  0  0  0  0  0
    0.0000    0.0000    0.0000 O   0  0  0  0  0  0  0  0  0  0  0  0
    0.0000    0.0000    0.0000 C   0  0  0  0  0  0  0  0  0  0  0  0
    0.0000    0.0000    0.0000 C   0  0  0  0  0  0  0  0  0  0  0  0
    0.0000    0.0000    0.0000 C   0  0  0  0  0  0  0  0  0  0  0  0
    0.0000    0.0000    0.0000 C   0  0  0  0  0  0  0  0  0  0  0  0
    0.0000    0.0000    0.0000 C   0  0  0  0  0  0  0  0  0  0  0  0
    0.0000    0.0000    0.0000 N   0  0  0  0  0  0  0  0  0  0  0  0
    0.0000    0.0000    0.0000 C   0  0  0  0  0  0  0  0  0  0  0  0
    0.0000    0.0000    0.0000 O   0  0  0  0  0  0  0  0  0  0  0  0
    0.0000    0.0000    0.0000 C   0  0  0  0  0  0  0  0  0  0  0  0
    0.0000    0.0000    0.0000 O   0  0  0  0  0  0  0  0  0  0  0  0
    0.0000    0.0000    0.0000 N   0  0  0  0  0  0  0  0  0  0  0  0
    0.0000    0.0000    0.0000 C   0  0  0  0  0  0  0  0  0  0  0  0
    0.0000    0.0000    0.0000 C   0  0  0  0  0  0  0  0  0  0  0  0
    0.0000    0.0000    0.0000 C   0  0  0  0  0  0  0  0  0  0  0  0
    0.0000    0.0000    0.0000 C   0  0  0  0  0  0  0  0  0  0  0  0
    0.0000    0.0000    0.0000 C   0  0  0  0  0  0  0  0  0  0  0  0
    0.0000    0.0000    0.0000 C   0  0  0  0  0  0  0  0  0  0  0  0
    0.0000    0.0000    0.0000 C   0  0  0  0  0  0  0  0  0  0  0  0
    0.0000    0.0000    0.0000 C   0  0  0  0  0  0  0  0  0  0  0  0
    0.0000    0.0000    0.0000 C   0  0  0  0  0  0  0  0  0  0  0  0
    0.0000    0.0000    0.0000 N   0  0  0  0  0  0  0  0  0  0  0  0
    0.0000    0.0000    0.0000 C   0  0  0  0  0  0  0  0  0  0  0  0
    0.0000    0.0000    0.0000 C   0  0  0  0  0  0  0  0  0  0  0  0
    0.0000    0.0000    0.0000 O   0  0  0  0  0  0  0  0  0  0  0  0
    0.0000    0.0000    0.0000 N   0  0  0  0  0  0  0  0  0  0  0  0
    0.0000    0.0000    0.0000 C   0  0  0  0  0  0  0  0  0  0  0  0
    0.0000    0.0000    0.0000 O   0  0  0  0  0  0  0  0  0  0  0  0
  1  2  1  0
  2  3  1  0
  3  4  1  0
  4  5  1  0
  5  6  2  0
  6  7  1  0
  7  8  1  0
  7  9  2  0
  9 10  1  0
 10 11  2  0
 11 12  1  0
 12 13  1  0
 13 14  1  0
 13 15  1  0
 15 16  2  0
  2 17  1  0
 17 18  2  0
 17 19  1  0
 19 20  1  0
 20 21  1  0
 21 22  1  0
 22 23  2  0
 23 24  1  0
 24 25  2  0
 25 26  1  0
 26 27  2  0
 27 28  1  0
 28 29  1  0
 29 30  1  0
 30 31  1  0
 31 32  2  0
 31 33  1  0
 29 34  1  0
 34 35  2  0
 15  3  1  0
 11  5  1  0
 34 20  1  0
 27 22  1  0
M  END
>  <pIC50>  (695) 
7.68

>  <ChEMBL_ID>  (695) 
CHEMBL1834250

>  <document_journal>  (695) 
J. Med. Chem.

>  <bao_endpoint>  (695) 
BAO_0000190

>  <potential_duplicate>  (695) 
False

>  <uo_units>  (695) 
UO_0000065

>  <canonical_smiles>  (695) 
C[C@@H](N1Cc2cc(O)ccc2CC(N)C1=O)C(=O)NC3Cc4ccccc4CN(CC(=O)N)C3=O

>  <parent_molecule_chembl_id>  (695) 
CHEMBL1834250

>  <assay_type>  (695) 
F

>  <src_id>  (695) 
1

>  <ligand_efficiency>  (695) 
None

>  <standard_flag>  (695) 
True

>  <molecule_chembl_id>  (695) 
CHEMBL1834250

>  <target_organism>  (695) 
Homo sapiens

>  <standard_units>  (695) 
nM

>  <record_id>  (695) 
1460243

>  <document_chembl_id>  (695) 
CHEMBL1833812

>  <bao_format>  (695) 
BAO_0000019

>  <data_validity_description>  (695) 
None

>  <activity_id>  (695) 
6380829

>  <standard_type>  (695) 
IC50

>  <target_chembl_id>  (695) 
CHEMBL233

>  <data_validity_comment>  (695) 
None

>  <published_value>  (695) 
20.8

>  <document_year>  (695) 
2011

>  <target_pref_name>  (695) 
Mu opioid receptor

>  <assay_chembl_id>  (695) 
CHEMBL1837092

>  <standard_relation>  (695) 
=

>  <assay_description>  (695) 
Agonist activity at Mu-type opioid receptor

>  <published_relation>  (695) 
=

>  <standard_value>  (695) 
20.8

>  <qudt_units>  (695) 
http://www.openphacts.org/units/Nanomolar

>  <target_tax_id>  (695) 
9606

>  <bao_label>  (695) 
assay format

>  <published_units>  (695) 
nM

>  <pchembl_value>  (695) 
7.68

>  <published_type>  (695) 
IC50

>  <activity_comment>  (695) 
None

$$$$

     RDKit          

 20 23  0  0  0  0  0  0  0  0999 V2000
    0.0000    0.0000    0.0000 S   0  0  0  0  0  0  0  0  0  0  0  0
    0.0000    0.0000    0.0000 S   0  0  0  0  0  0  0  0  0  0  0  0
    0.0000    0.0000    0.0000 C   0  0  0  0  0  0  0  0  0  0  0  0
    0.0000    0.0000    0.0000 N   0  0  0  0  0  0  0  0  0  0  0  0
    0.0000    0.0000    0.0000 C   0  0  0  0  0  0  0  0  0  0  0  0
    0.0000    0.0000    0.0000 C   0  0  0  0  0  0  0  0  0  0  0  0
    0.0000    0.0000    0.0000 C   0  0  0  0  0  0  0  0  0  0  0  0
    0.0000    0.0000    0.0000 C   0  0  0  0  0  0  0  0  0  0  0  0
    0.0000    0.0000    0.0000 C   0  0  0  0  0  0  0  0  0  0  0  0
    0.0000    0.0000    0.0000 C   0  0  0  0  0  0  0  0  0  0  0  0
    0.0000    0.0000    0.0000 S   0  0  0  0  0  0  0  0  0  0  0  0
    0.0000    0.0000    0.0000 C   0  0  0  0  0  0  0  0  0  0  0  0
    0.0000    0.0000    0.0000 N   0  0  0  0  0  0  0  0  0  0  0  0
    0.0000    0.0000    0.0000 C   0  0  0  0  0  0  0  0  0  0  0  0
    0.0000    0.0000    0.0000 C   0  0  0  0  0  0  0  0  0  0  0  0
    0.0000    0.0000    0.0000 C   0  0  0  0  0  0  0  0  0  0  0  0
    0.0000    0.0000    0.0000 C   0  0  0  0  0  0  0  0  0  0  0  0
    0.0000    0.0000    0.0000 C   0  0  0  0  0  0  0  0  0  0  0  0
    0.0000    0.0000    0.0000 C   0  0  0  0  0  0  0  0  0  0  0  0
    0.0000    0.0000    0.0000 S   0  0  0  0  0  0  0  0  0  0  0  0
  1  2  1  0
  2  3  1  0
  3  4  2  0
  4  5  1  0
  5  6  2  0
  6  7  1  0
  7  8  2  0
  8  9  1  0
  9 10  2  0
 10 11  1  0
  1 12  1  0
 12 13  2  0
 13 14  1  0
 14 15  2  0
 15 16  1  0
 16 17  2  0
 17 18  1  0
 18 19  2  0
 19 20  1  0
 11  3  1  0
 10  5  1  0
 20 12  1  0
 19 14  1  0
M  END
>  <pIC50>  (696) 
5.51

>  <ChEMBL_ID>  (696) 
CHEMBL508112

>  <document_journal>  (696) 
None

>  <bao_endpoint>  (696) 
BAO_0000190

>  <potential_duplicate>  (696) 
False

>  <uo_units>  (696) 
UO_0000065

>  <canonical_smiles>  (696) 
S(Sc1nc2ccccc2s1)c3nc4ccccc4s3

>  <parent_molecule_chembl_id>  (696) 
CHEMBL508112

>  <assay_type>  (696) 
B

>  <src_id>  (696) 
15

>  <ligand_efficiency>  (696) 
{u'le': u'0.38', u'bei': u'16.56', u'sei': u'4.15', u'lle': u'-0.28'}

>  <standard_flag>  (696) 
True

>  <molecule_chembl_id>  (696) 
CHEMBL508112

>  <target_organism>  (696) 
Homo sapiens

>  <standard_units>  (696) 
nM

>  <record_id>  (696) 
1539540

>  <document_chembl_id>  (696) 
CHEMBL1909046

>  <bao_format>  (696) 
BAO_0000249

>  <data_validity_description>  (696) 
None

>  <activity_id>  (696) 
7615031

>  <standard_type>  (696) 
IC50

>  <target_chembl_id>  (696) 
CHEMBL233

>  <data_validity_comment>  (696) 
None

>  <published_value>  (696) 
3.113

>  <document_year>  (696) 
None

>  <target_pref_name>  (696) 
Mu opioid receptor

>  <assay_chembl_id>  (696) 
CHEMBL1909182

>  <standard_relation>  (696) 
=

>  <assay_description>  (696) 
DRUGMATRIX: Opiate mu (OP3, MOP) radioligand binding (ligand: [3H] Diprenorphine)

>  <published_relation>  (696) 
=

>  <standard_value>  (696) 
3113

>  <qudt_units>  (696) 
http://www.openphacts.org/units/Nanomolar

>  <target_tax_id>  (696) 
9606

>  <bao_label>  (696) 
cell membrane format

>  <published_units>  (696) 
uM

>  <pchembl_value>  (696) 
5.51

>  <published_type>  (696) 
IC50

>  <activity_comment>  (696) 
None

$$$$

     RDKit          

 19 20  0  0  0  0  0  0  0  0999 V2000
    0.0000    0.0000    0.0000 O   0  0  0  0  0  0  0  0  0  0  0  0
    0.0000    0.0000    0.0000 C   0  0  0  0  0  0  0  0  0  0  0  0
    0.0000    0.0000    0.0000 C   0  0  0  0  0  0  0  0  0  0  0  0
    0.0000    0.0000    0.0000 Cl  0  0  0  0  0  0  0  0  0  0  0  0
    0.0000    0.0000    0.0000 C   0  0  0  0  0  0  0  0  0  0  0  0
    0.0000    0.0000    0.0000 C   0  0  0  0  0  0  0  0  0  0  0  0
    0.0000    0.0000    0.0000 Cl  0  0  0  0  0  0  0  0  0  0  0  0
    0.0000    0.0000    0.0000 C   0  0  0  0  0  0  0  0  0  0  0  0
    0.0000    0.0000    0.0000 C   0  0  0  0  0  0  0  0  0  0  0  0
    0.0000    0.0000    0.0000 S   0  0  0  0  0  0  0  0  0  0  0  0
    0.0000    0.0000    0.0000 C   0  0  0  0  0  0  0  0  0  0  0  0
    0.0000    0.0000    0.0000 C   0  0  0  0  0  0  0  0  0  0  0  0
    0.0000    0.0000    0.0000 C   0  0  0  0  0  0  0  0  0  0  0  0
    0.0000    0.0000    0.0000 Cl  0  0  0  0  0  0  0  0  0  0  0  0
    0.0000    0.0000    0.0000 C   0  0  0  0  0  0  0  0  0  0  0  0
    0.0000    0.0000    0.0000 C   0  0  0  0  0  0  0  0  0  0  0  0
    0.0000    0.0000    0.0000 Cl  0  0  0  0  0  0  0  0  0  0  0  0
    0.0000    0.0000    0.0000 C   0  0  0  0  0  0  0  0  0  0  0  0
    0.0000    0.0000    0.0000 O   0  0  0  0  0  0  0  0  0  0  0  0
  1  2  1  0
  2  3  2  0
  3  4  1  0
  3  5  1  0
  5  6  2  0
  6  7  1  0
  6  8  1  0
  8  9  2  0
  9 10  1  0
 10 11  1  0
 11 12  2  0
 12 13  1  0
 13 14  1  0
 13 15  2  0
 15 16  1  0
 16 17  1  0
 16 18  2  0
 18 19  1  0
  9  2  1  0
 18 11  1  0
M  END
>  <pIC50>  (697) 
5.26

>  <ChEMBL_ID>  (697) 
CHEMBL290106

>  <document_journal>  (697) 
None

>  <bao_endpoint>  (697) 
BAO_0000190

>  <potential_duplicate>  (697) 
False

>  <uo_units>  (697) 
UO_0000065

>  <canonical_smiles>  (697) 
Oc1c(Cl)cc(Cl)cc1Sc2cc(Cl)cc(Cl)c2O

>  <parent_molecule_chembl_id>  (697) 
CHEMBL290106

>  <assay_type>  (697) 
B

>  <src_id>  (697) 
15

>  <ligand_efficiency>  (697) 
{u'le': u'0.38', u'bei': u'14.77', u'sei': u'8', u'lle': u'-0.86'}

>  <standard_flag>  (697) 
True

>  <molecule_chembl_id>  (697) 
CHEMBL290106

>  <target_organism>  (697) 
Homo sapiens

>  <standard_units>  (697) 
nM

>  <record_id>  (697) 
1539556

>  <document_chembl_id>  (697) 
CHEMBL1909046

>  <bao_format>  (697) 
BAO_0000249

>  <data_validity_description>  (697) 
None

>  <activity_id>  (697) 
7615219

>  <standard_type>  (697) 
IC50

>  <target_chembl_id>  (697) 
CHEMBL233

>  <data_validity_comment>  (697) 
None

>  <published_value>  (697) 
5.507

>  <document_year>  (697) 
None

>  <target_pref_name>  (697) 
Mu opioid receptor

>  <assay_chembl_id>  (697) 
CHEMBL1909182

>  <standard_relation>  (697) 
=

>  <assay_description>  (697) 
DRUGMATRIX: Opiate mu (OP3, MOP) radioligand binding (ligand: [3H] Diprenorphine)

>  <published_relation>  (697) 
=

>  <standard_value>  (697) 
5507

>  <qudt_units>  (697) 
http://www.openphacts.org/units/Nanomolar

>  <target_tax_id>  (697) 
9606

>  <bao_label>  (697) 
cell membrane format

>  <published_units>  (697) 
uM

>  <pchembl_value>  (697) 
5.26

>  <published_type>  (697) 
IC50

>  <activity_comment>  (697) 
None

$$$$

     RDKit          

 34 38  0  0  0  0  0  0  0  0999 V2000
    0.0000    0.0000    0.0000 C   0  0  0  0  0  0  0  0  0  0  0  0
    0.0000    0.0000    0.0000 O   0  0  0  0  0  0  0  0  0  0  0  0
    0.0000    0.0000    0.0000 C   0  0  0  0  0  0  0  0  0  0  0  0
    0.0000    0.0000    0.0000 C   0  0  0  0  0  0  0  0  0  0  0  0
    0.0000    0.0000    0.0000 C   0  0  0  0  0  0  0  0  0  0  0  0
    0.0000    0.0000    0.0000 C   0  0  0  0  0  0  0  0  0  0  0  0
    0.0000    0.0000    0.0000 C   0  0  0  0  0  0  0  0  0  0  0  0
    0.0000    0.0000    0.0000 C   0  0  0  0  0  0  0  0  0  0  0  0
    0.0000    0.0000    0.0000 N   0  0  0  0  0  0  0  0  0  0  0  0
    0.0000    0.0000    0.0000 C   0  0  0  0  0  0  0  0  0  0  0  0
    0.0000    0.0000    0.0000 C   0  0  0  0  0  0  0  0  0  0  0  0
    0.0000    0.0000    0.0000 C   0  0  0  0  0  0  0  0  0  0  0  0
    0.0000    0.0000    0.0000 C   0  0  0  0  0  0  0  0  0  0  0  0
    0.0000    0.0000    0.0000 C   0  0  0  0  0  0  0  0  0  0  0  0
    0.0000    0.0000    0.0000 N   0  0  0  0  0  0  0  0  0  0  0  0
    0.0000    0.0000    0.0000 C   0  0  0  0  0  0  0  0  0  0  0  0
    0.0000    0.0000    0.0000 N   0  0  0  0  0  0  0  0  0  0  0  0
    0.0000    0.0000    0.0000 C   0  0  0  0  0  0  0  0  0  0  0  0
    0.0000    0.0000    0.0000 C   0  0  0  0  0  0  0  0  0  0  0  0
    0.0000    0.0000    0.0000 C   0  0  0  0  0  0  0  0  0  0  0  0
    0.0000    0.0000    0.0000 C   0  0  0  0  0  0  0  0  0  0  0  0
    0.0000    0.0000    0.0000 C   0  0  0  0  0  0  0  0  0  0  0  0
    0.0000    0.0000    0.0000 C   0  0  0  0  0  0  0  0  0  0  0  0
    0.0000    0.0000    0.0000 N   0  0  0  0  0  0  0  0  0  0  0  0
    0.0000    0.0000    0.0000 C   0  0  0  0  0  0  0  0  0  0  0  0
    0.0000    0.0000    0.0000 C   0  0  0  0  0  0  0  0  0  0  0  0
    0.0000    0.0000    0.0000 C   0  0  0  0  0  0  0  0  0  0  0  0
    0.0000    0.0000    0.0000 C   0  0  0  0  0  0  0  0  0  0  0  0
    0.0000    0.0000    0.0000 C   0  0  0  0  0  0  0  0  0  0  0  0
    0.0000    0.0000    0.0000 F   0  0  0  0  0  0  0  0  0  0  0  0
    0.0000    0.0000    0.0000 C   0  0  0  0  0  0  0  0  0  0  0  0
    0.0000    0.0000    0.0000 C   0  0  0  0  0  0  0  0  0  0  0  0
    0.0000    0.0000    0.0000 C   0  0  0  0  0  0  0  0  0  0  0  0
    0.0000    0.0000    0.0000 C   0  0  0  0  0  0  0  0  0  0  0  0
  1  2  1  0
  2  3  1  0
  3  4  2  0
  4  5  1  0
  5  6  2  0
  6  7  1  0
  7  8  1  0
  8  9  1  0
  9 10  1  0
 10 11  1  0
 11 12  1  0
 12 13  1  0
 13 14  1  0
 12 15  1  0
 15 16  1  0
 16 17  2  0
 17 18  1  0
 18 19  2  0
 19 20  1  0
 20 21  2  0
 21 22  1  0
 22 23  2  0
 23 24  1  0
 24 25  1  0
 25 26  1  0
 26 27  2  0
 27 28  1  0
 28 29  2  0
 29 30  1  0
 29 31  1  0
 31 32  2  0
  6 33  1  0
 33 34  2  0
 34  3  1  0
 14  9  1  0
 24 16  1  0
 23 18  1  0
 32 26  1  0
M  END
>  <pIC50>  (698) 
5.83

>  <ChEMBL_ID>  (698) 
CHEMBL296419

>  <document_journal>  (698) 
None

>  <bao_endpoint>  (698) 
BAO_0000190

>  <potential_duplicate>  (698) 
False

>  <uo_units>  (698) 
UO_0000065

>  <canonical_smiles>  (698) 
COc1ccc(CCN2CCC(CC2)Nc3nc4ccccc4n3Cc5ccc(F)cc5)cc1

>  <parent_molecule_chembl_id>  (698) 
CHEMBL296419

>  <assay_type>  (698) 
B

>  <src_id>  (698) 
15

>  <ligand_efficiency>  (698) 
{u'le': u'0.23', u'bei': u'12.71', u'sei': u'13.77', u'lle': u'0.14'}

>  <standard_flag>  (698) 
True

>  <molecule_chembl_id>  (698) 
CHEMBL296419

>  <target_organism>  (698) 
Homo sapiens

>  <standard_units>  (698) 
nM

>  <record_id>  (698) 
1539510

>  <document_chembl_id>  (698) 
CHEMBL1909046

>  <bao_format>  (698) 
BAO_0000249

>  <data_validity_description>  (698) 
None

>  <activity_id>  (698) 
7620352

>  <standard_type>  (698) 
IC50

>  <target_chembl_id>  (698) 
CHEMBL233

>  <data_validity_comment>  (698) 
None

>  <published_value>  (698) 
1.492

>  <document_year>  (698) 
None

>  <target_pref_name>  (698) 
Mu opioid receptor

>  <assay_chembl_id>  (698) 
CHEMBL1909182

>  <standard_relation>  (698) 
=

>  <assay_description>  (698) 
DRUGMATRIX: Opiate mu (OP3, MOP) radioligand binding (ligand: [3H] Diprenorphine)

>  <published_relation>  (698) 
=

>  <standard_value>  (698) 
1492

>  <qudt_units>  (698) 
http://www.openphacts.org/units/Nanomolar

>  <target_tax_id>  (698) 
9606

>  <bao_label>  (698) 
cell membrane format

>  <published_units>  (698) 
uM

>  <pchembl_value>  (698) 
5.83

>  <published_type>  (698) 
IC50

>  <activity_comment>  (698) 
None

$$$$

     RDKit          

 31 33  0  0  0  0  0  0  0  0999 V2000
    0.0000    0.0000    0.0000 C   0  0  0  0  0  0  0  0  0  0  0  0
    0.0000    0.0000    0.0000 C   0  0  0  0  0  0  0  0  0  0  0  0
    0.0000    0.0000    0.0000 C   0  0  0  0  0  0  0  0  0  0  0  0
    0.0000    0.0000    0.0000 C   0  0  0  0  0  0  0  0  0  0  0  0
    0.0000    0.0000    0.0000 C   0  0  0  0  0  0  0  0  0  0  0  0
    0.0000    0.0000    0.0000 O   0  0  0  0  0  0  0  0  0  0  0  0
    0.0000    0.0000    0.0000 C   0  0  0  0  0  0  0  0  0  0  0  0
    0.0000    0.0000    0.0000 C   0  0  0  0  0  0  0  0  0  0  0  0
    0.0000    0.0000    0.0000 C   0  0  0  0  0  0  0  0  0  0  0  0
    0.0000    0.0000    0.0000 C   0  0  0  0  0  0  0  0  0  0  0  0
    0.0000    0.0000    0.0000 C   0  0  0  0  0  0  0  0  0  0  0  0
    0.0000    0.0000    0.0000 C   0  0  0  0  0  0  0  0  0  0  0  0
    0.0000    0.0000    0.0000 C   0  0  0  0  0  0  0  0  0  0  0  0
    0.0000    0.0000    0.0000 C   0  0  0  0  0  0  0  0  0  0  0  0
    0.0000    0.0000    0.0000 O   0  0  0  0  0  0  0  0  0  0  0  0
    0.0000    0.0000    0.0000 C   0  0  0  0  0  0  0  0  0  0  0  0
    0.0000    0.0000    0.0000 C   0  0  0  0  0  0  0  0  0  0  0  0
    0.0000    0.0000    0.0000 C   0  0  0  0  0  0  0  0  0  0  0  0
    0.0000    0.0000    0.0000 I   0  0  0  0  0  0  0  0  0  0  0  0
    0.0000    0.0000    0.0000 C   0  0  0  0  0  0  0  0  0  0  0  0
    0.0000    0.0000    0.0000 O   0  0  0  0  0  0  0  0  0  0  0  0
    0.0000    0.0000    0.0000 C   0  0  0  0  0  0  0  0  0  0  0  0
    0.0000    0.0000    0.0000 C   0  0  0  0  0  0  0  0  0  0  0  0
    0.0000    0.0000    0.0000 N   0  0  0  0  0  0  0  0  0  0  0  0
    0.0000    0.0000    0.0000 C   0  0  0  0  0  0  0  0  0  0  0  0
    0.0000    0.0000    0.0000 C   0  0  0  0  0  0  0  0  0  0  0  0
    0.0000    0.0000    0.0000 C   0  0  0  0  0  0  0  0  0  0  0  0
    0.0000    0.0000    0.0000 C   0  0  0  0  0  0  0  0  0  0  0  0
    0.0000    0.0000    0.0000 C   0  0  0  0  0  0  0  0  0  0  0  0
    0.0000    0.0000    0.0000 I   0  0  0  0  0  0  0  0  0  0  0  0
    0.0000    0.0000    0.0000 C   0  0  0  0  0  0  0  0  0  0  0  0
  1  2  1  0
  2  3  1  0
  3  4  1  0
  4  5  1  0
  5  6  1  0
  6  7  1  0
  7  8  2  0
  8  9  1  0
  9 10  2  0
 10 11  1  0
 11 12  2  0
 12 13  1  0
 13 14  1  0
 14 15  2  0
 14 16  1  0
 16 17  2  0
 17 18  1  0
 18 19  1  0
 18 20  2  0
 20 21  1  0
 21 22  1  0
 22 23  1  0
 23 24  1  0
 24 25  1  0
 25 26  1  0
 24 27  1  0
 27 28  1  0
 20 29  1  0
 29 30  1  0
 29 31  2  0
 13  5  2  0
 12  7  1  0
 31 16  1  0
M  END
>  <pIC50>  (699) 
4.72

>  <ChEMBL_ID>  (699) 
CHEMBL633

>  <document_journal>  (699) 
None

>  <bao_endpoint>  (699) 
BAO_0000190

>  <potential_duplicate>  (699) 
False

>  <uo_units>  (699) 
UO_0000065

>  <canonical_smiles>  (699) 
CCCCc1oc2ccccc2c1C(=O)c3cc(I)c(OCCN(CC)CC)c(I)c3

>  <parent_molecule_chembl_id>  (699) 
CHEMBL633

>  <assay_type>  (699) 
B

>  <src_id>  (699) 
15

>  <ligand_efficiency>  (699) 
{u'le': u'0.21', u'bei': u'7.31', u'sei': u'11.06', u'lle': u'-2.52'}

>  <standard_flag>  (699) 
True

>  <molecule_chembl_id>  (699) 
CHEMBL633

>  <target_organism>  (699) 
Homo sapiens

>  <standard_units>  (699) 
nM

>  <record_id>  (699) 
1539485

>  <document_chembl_id>  (699) 
CHEMBL1909046

>  <bao_format>  (699) 
BAO_0000249

>  <data_validity_description>  (699) 
None

>  <activity_id>  (699) 
7633682

>  <standard_type>  (699) 
IC50

>  <target_chembl_id>  (699) 
CHEMBL233

>  <data_validity_comment>  (699) 
None

>  <published_value>  (699) 
19.037

>  <document_year>  (699) 
None

>  <target_pref_name>  (699) 
Mu opioid receptor

>  <assay_chembl_id>  (699) 
CHEMBL1909182

>  <standard_relation>  (699) 
=

>  <assay_description>  (699) 
DRUGMATRIX: Opiate mu (OP3, MOP) radioligand binding (ligand: [3H] Diprenorphine)

>  <published_relation>  (699) 
=

>  <standard_value>  (699) 
19037

>  <qudt_units>  (699) 
http://www.openphacts.org/units/Nanomolar

>  <target_tax_id>  (699) 
9606

>  <bao_label>  (699) 
cell membrane format

>  <published_units>  (699) 
uM

>  <pchembl_value>  (699) 
4.72

>  <published_type>  (699) 
IC50

>  <activity_comment>  (699) 
None

$$$$

     RDKit          

 42 48  0  0  0  0  0  0  0  0999 V2000
    0.0000    0.0000    0.0000 C   0  0  0  0  0  0  0  0  0  0  0  0
    0.0000    0.0000    0.0000 C   0  0  0  0  0  0  0  0  0  0  0  0
    0.0000    0.0000    0.0000 C   0  0  0  0  0  0  0  0  0  0  0  0
    0.0000    0.0000    0.0000 C   0  0  0  0  0  0  0  0  0  0  0  0
    0.0000    0.0000    0.0000 C   0  0  0  0  0  0  0  0  0  0  0  0
    0.0000    0.0000    0.0000 N   0  0  0  0  0  0  0  0  0  0  0  0
    0.0000    0.0000    0.0000 C   0  0  0  0  0  0  0  0  0  0  0  0
    0.0000    0.0000    0.0000 O   0  0  0  0  0  0  0  0  0  0  0  0
    0.0000    0.0000    0.0000 C   0  0  0  0  0  0  0  0  0  0  0  0
    0.0000    0.0000    0.0000 N   0  0  0  0  0  0  0  0  0  0  0  0
    0.0000    0.0000    0.0000 C   0  0  0  0  0  0  0  0  0  0  0  0
    0.0000    0.0000    0.0000 O   0  0  0  0  0  0  0  0  0  0  0  0
    0.0000    0.0000    0.0000 C   0  0  0  0  0  0  0  0  0  0  0  0
    0.0000    0.0000    0.0000 C   0  0  0  0  0  0  0  0  0  0  0  0
    0.0000    0.0000    0.0000 N   0  0  0  0  0  0  0  0  0  0  0  0
    0.0000    0.0000    0.0000 C   0  0  0  0  0  0  0  0  0  0  0  0
    0.0000    0.0000    0.0000 C   0  0  0  0  0  0  0  0  0  0  0  0
    0.0000    0.0000    0.0000 C   0  0  0  0  0  0  0  0  0  0  0  0
    0.0000    0.0000    0.0000 C   0  0  0  0  0  0  0  0  0  0  0  0
    0.0000    0.0000    0.0000 C   0  0  0  0  0  0  0  0  0  0  0  0
    0.0000    0.0000    0.0000 N   0  0  0  0  0  0  0  0  0  0  0  0
    0.0000    0.0000    0.0000 C   0  0  0  0  0  0  0  0  0  0  0  0
    0.0000    0.0000    0.0000 C   0  0  0  0  0  0  0  0  0  0  0  0
    0.0000    0.0000    0.0000 C   0  0  0  0  0  0  0  0  0  0  0  0
    0.0000    0.0000    0.0000 C   0  0  0  0  0  0  0  0  0  0  0  0
    0.0000    0.0000    0.0000 C   0  0  0  0  0  0  0  0  0  0  0  0
    0.0000    0.0000    0.0000 C   0  0  0  0  0  0  0  0  0  0  0  0
    0.0000    0.0000    0.0000 C   0  0  0  0  0  0  0  0  0  0  0  0
    0.0000    0.0000    0.0000 C   0  0  0  0  0  0  0  0  0  0  0  0
    0.0000    0.0000    0.0000 O   0  0  0  0  0  0  0  0  0  0  0  0
    0.0000    0.0000    0.0000 C   0  0  0  0  0  0  0  0  0  0  0  0
    0.0000    0.0000    0.0000 O   0  0  0  0  0  0  0  0  0  0  0  0
    0.0000    0.0000    0.0000 C   0  0  0  0  0  0  0  0  0  0  0  0
    0.0000    0.0000    0.0000 C   0  0  0  0  0  0  0  0  0  0  0  0
    0.0000    0.0000    0.0000 C   0  0  0  0  0  0  0  0  0  0  0  0
    0.0000    0.0000    0.0000 C   0  0  0  0  0  0  0  0  0  0  0  0
    0.0000    0.0000    0.0000 N   0  0  0  0  0  0  0  0  0  0  0  0
    0.0000    0.0000    0.0000 C   0  0  0  0  0  0  0  0  0  0  0  0
    0.0000    0.0000    0.0000 O   0  0  0  0  0  0  0  0  0  0  0  0
    0.0000    0.0000    0.0000 C   0  0  0  0  0  0  0  0  0  0  0  0
    0.0000    0.0000    0.0000 C   0  0  0  0  0  0  0  0  0  0  0  0
    0.0000    0.0000    0.0000 C   0  0  0  0  0  0  0  0  0  0  0  0
  1  2  1  0
  2  3  1  0
  2  4  1  0
  4  5  1  0
  5  6  1  0
  6  7  1  0
  7  8  2  0
  7  9  1  0
  9 10  1  0
 10 11  1  0
 11 12  2  0
 11 13  1  0
 13 14  1  0
 14 15  1  0
 15 16  1  0
 15 17  1  0
 17 18  1  0
 18 19  1  0
 19 20  2  0
 20 21  1  0
 21 22  1  0
 22 23  2  0
 23 24  1  0
 24 25  2  0
 25 26  1  0
 26 27  1  0
 27 28  2  0
 26 29  2  0
  9 30  1  0
 30 31  1  0
 31 32  1  0
 31 33  1  0
 33 34  1  0
 34 35  1  0
 35 36  1  0
 36 37  1  0
 37 38  1  0
 38 39  2  0
  9 40  1  0
 40 41  1  0
 40 42  1  0
 38  5  1  0
 31  6  1  0
 28 13  1  0
 27 17  1  0
 29 19  1  0
 29 22  1  0
 37 33  1  0
M  END
>  <pIC50>  (700) 
5.62

>  <ChEMBL_ID>  (700) 
CHEMBL1403281

>  <document_journal>  (700) 
None

>  <bao_endpoint>  (700) 
BAO_0000190

>  <potential_duplicate>  (700) 
False

>  <uo_units>  (700) 
UO_0000065

>  <canonical_smiles>  (700) 
CC(C)C[C@@H]1N2C(=O)[C@](NC(=O)[C@H]3CN(C)[C@@H]4Cc5c[nH]c6cccc(C4=C3)c56)(O[C@@]2(O)[C@@H]7CCCN7C1=O)C(C)C

>  <parent_molecule_chembl_id>  (700) 
CHEMBL1403281

>  <assay_type>  (700) 
B

>  <src_id>  (700) 
15

>  <ligand_efficiency>  (700) 
{u'le': u'0.18', u'bei': u'9.75', u'sei': u'4.75', u'lle': u'1.81'}

>  <standard_flag>  (700) 
True

>  <molecule_chembl_id>  (700) 
CHEMBL1403281

>  <target_organism>  (700) 
Homo sapiens

>  <standard_units>  (700) 
nM

>  <record_id>  (700) 
1539470

>  <document_chembl_id>  (700) 
CHEMBL1909046

>  <bao_format>  (700) 
BAO_0000249

>  <data_validity_description>  (700) 
None

>  <activity_id>  (700) 
7634798

>  <standard_type>  (700) 
IC50

>  <target_chembl_id>  (700) 
CHEMBL233

>  <data_validity_comment>  (700) 
None

>  <published_value>  (700) 
2.427

>  <document_year>  (700) 
None

>  <target_pref_name>  (700) 
Mu opioid receptor

>  <assay_chembl_id>  (700) 
CHEMBL1909182

>  <standard_relation>  (700) 
=

>  <assay_description>  (700) 
DRUGMATRIX: Opiate mu (OP3, MOP) radioligand binding (ligand: [3H] Diprenorphine)

>  <published_relation>  (700) 
=

>  <standard_value>  (700) 
2427

>  <qudt_units>  (700) 
http://www.openphacts.org/units/Nanomolar

>  <target_tax_id>  (700) 
9606

>  <bao_label>  (700) 
cell membrane format

>  <published_units>  (700) 
uM

>  <pchembl_value>  (700) 
5.62

>  <published_type>  (700) 
IC50

>  <activity_comment>  (700) 
None

$$$$

     RDKit          

 28 30  0  0  0  0  0  0  0  0999 V2000
    0.0000    0.0000    0.0000 C   0  0  0  0  0  0  0  0  0  0  0  0
    0.0000    0.0000    0.0000 N   0  0  0  0  0  0  0  0  0  0  0  0
    0.0000    0.0000    0.0000 C   0  0  0  0  0  0  0  0  0  0  0  0
    0.0000    0.0000    0.0000 C   0  0  0  0  0  0  0  0  0  0  0  0
    0.0000    0.0000    0.0000 C   0  0  0  0  0  0  0  0  0  0  0  0
    0.0000    0.0000    0.0000 C   0  0  0  0  0  0  0  0  0  0  0  0
    0.0000    0.0000    0.0000 C   0  0  0  0  0  0  0  0  0  0  0  0
    0.0000    0.0000    0.0000 C   0  0  0  0  0  0  0  0  0  0  0  0
    0.0000    0.0000    0.0000 C   0  0  0  0  0  0  0  0  0  0  0  0
    0.0000    0.0000    0.0000 C   0  0  0  0  0  0  0  0  0  0  0  0
    0.0000    0.0000    0.0000 C   0  0  0  0  0  0  0  0  0  0  0  0
    0.0000    0.0000    0.0000 C   0  0  0  0  0  0  0  0  0  0  0  0
    0.0000    0.0000    0.0000 C   0  0  0  0  0  0  0  0  0  0  0  0
    0.0000    0.0000    0.0000 C   0  0  0  0  0  0  0  0  0  0  0  0
    0.0000    0.0000    0.0000 N   0  0  0  0  0  0  0  0  0  0  0  0
    0.0000    0.0000    0.0000 C   0  0  0  0  0  0  0  0  0  0  0  0
    0.0000    0.0000    0.0000 C   0  0  0  0  0  0  0  0  0  0  0  0
    0.0000    0.0000    0.0000 C   0  0  0  0  0  0  0  0  0  0  0  0
    0.0000    0.0000    0.0000 C   0  0  0  0  0  0  0  0  0  0  0  0
    0.0000    0.0000    0.0000 C   0  0  0  0  0  0  0  0  0  0  0  0
    0.0000    0.0000    0.0000 C   0  0  0  0  0  0  0  0  0  0  0  0
    0.0000    0.0000    0.0000 C   0  0  0  0  0  0  0  0  0  0  0  0
    0.0000    0.0000    0.0000 C   0  0  0  0  0  0  0  0  0  0  0  0
    0.0000    0.0000    0.0000 C   0  0  0  0  0  0  0  0  0  0  0  0
    0.0000    0.0000    0.0000 C   0  0  0  0  0  0  0  0  0  0  0  0
    0.0000    0.0000    0.0000 N   0  0  0  0  0  0  0  0  0  0  0  0
    0.0000    0.0000    0.0000 C   0  0  0  0  0  0  0  0  0  0  0  0
    0.0000    0.0000    0.0000 C   0  0  0  0  0  0  0  0  0  0  0  0
  1  2  1  0
  2  3  1  0
  2  4  1  0
  4  5  2  0
  5  6  1  0
  6  7  2  0
  7  8  1  0
  8  9  2  0
  7 10  1  0
 10 11  2  3
 11 12  1  0
 12 13  2  0
 13 14  1  0
 14 15  2  3
 15 16  1  0
 15 17  1  0
 14 18  1  0
 18 19  2  0
 10 20  1  0
 20 21  2  0
 21 22  1  0
 22 23  2  0
 23 24  1  0
 24 25  2  0
 23 26  1  0
 26 27  1  0
 26 28  1  0
  9  4  1  0
 19 11  1  0
 25 20  1  0
M  CHG  1  15   1
M  END
>  <pIC50>  (701) 
5.67

>  <ChEMBL_ID>  (701) 
CHEMBL64894

>  <document_journal>  (701) 
None

>  <bao_endpoint>  (701) 
BAO_0000190

>  <potential_duplicate>  (701) 
False

>  <uo_units>  (701) 
UO_0000065

>  <canonical_smiles>  (701) 
[Cl-].CN(C)c1ccc(cc1)C(=C2C=CC(=[N+](C)C)C=C2)c3ccc(cc3)N(C)C

>  <parent_molecule_chembl_id>  (701) 
CHEMBL459265

>  <assay_type>  (701) 
B

>  <src_id>  (701) 
15

>  <ligand_efficiency>  (701) 
{u'le': u'0.28', u'bei': u'15.22', u'sei': u'59.73', u'lle': u'0.75'}

>  <standard_flag>  (701) 
True

>  <molecule_chembl_id>  (701) 
CHEMBL64894

>  <target_organism>  (701) 
Homo sapiens

>  <standard_units>  (701) 
nM

>  <record_id>  (701) 
1539804

>  <document_chembl_id>  (701) 
CHEMBL1909046

>  <bao_format>  (701) 
BAO_0000249

>  <data_validity_description>  (701) 
None

>  <activity_id>  (701) 
7651274

>  <standard_type>  (701) 
IC50

>  <target_chembl_id>  (701) 
CHEMBL233

>  <data_validity_comment>  (701) 
None

>  <published_value>  (701) 
2.145

>  <document_year>  (701) 
None

>  <target_pref_name>  (701) 
Mu opioid receptor

>  <assay_chembl_id>  (701) 
CHEMBL1909182

>  <standard_relation>  (701) 
=

>  <assay_description>  (701) 
DRUGMATRIX: Opiate mu (OP3, MOP) radioligand binding (ligand: [3H] Diprenorphine)

>  <published_relation>  (701) 
=

>  <standard_value>  (701) 
2145

>  <qudt_units>  (701) 
http://www.openphacts.org/units/Nanomolar

>  <target_tax_id>  (701) 
9606

>  <bao_label>  (701) 
cell membrane format

>  <published_units>  (701) 
uM

>  <pchembl_value>  (701) 
5.67

>  <published_type>  (701) 
IC50

>  <activity_comment>  (701) 
None

$$$$

     RDKit          

 24 26  0  0  0  0  0  0  0  0999 V2000
    0.0000    0.0000    0.0000 Cl  0  0  0  0  0  0  0  0  0  0  0  0
    0.0000    0.0000    0.0000 C   0  0  0  0  0  0  0  0  0  0  0  0
    0.0000    0.0000    0.0000 C   0  0  0  0  0  0  0  0  0  0  0  0
    0.0000    0.0000    0.0000 C   0  0  0  0  0  0  0  0  0  0  0  0
    0.0000    0.0000    0.0000 C   0  0  0  0  0  0  0  0  0  0  0  0
    0.0000    0.0000    0.0000 C   0  0  0  0  0  0  0  0  0  0  0  0
    0.0000    0.0000    0.0000 O   0  0  0  0  0  0  0  0  0  0  0  0
    0.0000    0.0000    0.0000 C   0  0  0  0  0  0  0  0  0  0  0  0
    0.0000    0.0000    0.0000 C   0  0  0  0  0  0  0  0  0  0  0  0
    0.0000    0.0000    0.0000 N   0  0  0  0  0  0  0  0  0  0  0  0
    0.0000    0.0000    0.0000 C   0  0  0  0  0  0  0  0  0  0  0  0
    0.0000    0.0000    0.0000 C   0  0  0  0  0  0  0  0  0  0  0  0
    0.0000    0.0000    0.0000 N   0  0  0  0  0  0  0  0  0  0  0  0
    0.0000    0.0000    0.0000 C   0  0  0  0  0  0  0  0  0  0  0  0
    0.0000    0.0000    0.0000 C   0  0  0  0  0  0  0  0  0  0  0  0
    0.0000    0.0000    0.0000 C   0  0  0  0  0  0  0  0  0  0  0  0
    0.0000    0.0000    0.0000 C   0  0  0  0  0  0  0  0  0  0  0  0
    0.0000    0.0000    0.0000 C   0  0  0  0  0  0  0  0  0  0  0  0
    0.0000    0.0000    0.0000 Cl  0  0  0  0  0  0  0  0  0  0  0  0
    0.0000    0.0000    0.0000 C   0  0  0  0  0  0  0  0  0  0  0  0
    0.0000    0.0000    0.0000 C   0  0  0  0  0  0  0  0  0  0  0  0
    0.0000    0.0000    0.0000 Cl  0  0  0  0  0  0  0  0  0  0  0  0
    0.0000    0.0000    0.0000 C   0  0  0  0  0  0  0  0  0  0  0  0
    0.0000    0.0000    0.0000 C   0  0  0  0  0  0  0  0  0  0  0  0
  1  2  1  0
  2  3  2  0
  3  4  1  0
  4  5  2  0
  5  6  1  0
  6  7  1  0
  7  8  1  0
  8  9  1  0
  9 10  1  0
 10 11  1  0
 11 12  2  0
 12 13  1  0
 13 14  2  0
  8 15  1  0
 15 16  2  0
 16 17  1  0
 17 18  2  0
 18 19  1  0
 18 20  1  0
 20 21  2  0
 21 22  1  0
  5 23  1  0
 23 24  2  0
 24  2  1  0
 14 10  1  0
 21 15  1  0
M  END
>  <pIC50>  (702) 
5.25

>  <ChEMBL_ID>  (702) 
CHEMBL808

>  <document_journal>  (702) 
None

>  <bao_endpoint>  (702) 
BAO_0000190

>  <potential_duplicate>  (702) 
False

>  <uo_units>  (702) 
UO_0000065

>  <canonical_smiles>  (702) 
Clc1ccc(COC(Cn2ccnc2)c3ccc(Cl)cc3Cl)cc1

>  <parent_molecule_chembl_id>  (702) 
CHEMBL808

>  <assay_type>  (702) 
B

>  <src_id>  (702) 
15

>  <ligand_efficiency>  (702) 
{u'le': u'0.3', u'bei': u'13.74', u'sei': u'19.39', u'lle': u'0.26'}

>  <standard_flag>  (702) 
True

>  <molecule_chembl_id>  (702) 
CHEMBL808

>  <target_organism>  (702) 
Homo sapiens

>  <standard_units>  (702) 
nM

>  <record_id>  (702) 
1539724

>  <document_chembl_id>  (702) 
CHEMBL1909046

>  <bao_format>  (702) 
BAO_0000249

>  <data_validity_description>  (702) 
None

>  <activity_id>  (702) 
7652054

>  <standard_type>  (702) 
IC50

>  <target_chembl_id>  (702) 
CHEMBL233

>  <data_validity_comment>  (702) 
None

>  <published_value>  (702) 
5.693

>  <document_year>  (702) 
None

>  <target_pref_name>  (702) 
Mu opioid receptor

>  <assay_chembl_id>  (702) 
CHEMBL1909182

>  <standard_relation>  (702) 
=

>  <assay_description>  (702) 
DRUGMATRIX: Opiate mu (OP3, MOP) radioligand binding (ligand: [3H] Diprenorphine)

>  <published_relation>  (702) 
=

>  <standard_value>  (702) 
5693

>  <qudt_units>  (702) 
http://www.openphacts.org/units/Nanomolar

>  <target_tax_id>  (702) 
9606

>  <bao_label>  (702) 
cell membrane format

>  <published_units>  (702) 
uM

>  <pchembl_value>  (702) 
5.25

>  <published_type>  (702) 
IC50

>  <activity_comment>  (702) 
None

$$$$

     RDKit          

 30 33  0  0  0  0  0  0  0  0999 V2000
    0.0000    0.0000    0.0000 F   0  0  0  0  0  0  0  0  0  0  0  0
    0.0000    0.0000    0.0000 C   0  0  0  0  0  0  0  0  0  0  0  0
    0.0000    0.0000    0.0000 C   0  0  0  0  0  0  0  0  0  0  0  0
    0.0000    0.0000    0.0000 C   0  0  0  0  0  0  0  0  0  0  0  0
    0.0000    0.0000    0.0000 C   0  0  0  0  0  0  0  0  0  0  0  0
    0.0000    0.0000    0.0000 C   0  0  0  0  0  0  0  0  0  0  0  0
    0.0000    0.0000    0.0000 C   0  0  0  0  0  0  0  0  0  0  0  0
    0.0000    0.0000    0.0000 C   0  0  0  0  0  0  0  0  0  0  0  0
    0.0000    0.0000    0.0000 N   0  0  0  0  0  0  0  0  0  0  0  0
    0.0000    0.0000    0.0000 C   0  0  0  0  0  0  0  0  0  0  0  0
    0.0000    0.0000    0.0000 C   0  0  0  0  0  0  0  0  0  0  0  0
    0.0000    0.0000    0.0000 N   0  0  0  0  0  0  0  0  0  0  0  0
    0.0000    0.0000    0.0000 C   0  0  0  0  0  0  0  0  0  0  0  0
    0.0000    0.0000    0.0000 C   0  0  0  0  0  0  0  0  0  0  0  0
    0.0000    0.0000    0.0000 C   0  0  0  0  0  0  0  0  0  0  0  0
    0.0000    0.0000    0.0000 C   0  0  0  0  0  0  0  0  0  0  0  0
    0.0000    0.0000    0.0000 C   0  0  0  0  0  0  0  0  0  0  0  0
    0.0000    0.0000    0.0000 C   0  0  0  0  0  0  0  0  0  0  0  0
    0.0000    0.0000    0.0000 C   0  0  0  0  0  0  0  0  0  0  0  0
    0.0000    0.0000    0.0000 C   0  0  0  0  0  0  0  0  0  0  0  0
    0.0000    0.0000    0.0000 C   0  0  0  0  0  0  0  0  0  0  0  0
    0.0000    0.0000    0.0000 C   0  0  0  0  0  0  0  0  0  0  0  0
    0.0000    0.0000    0.0000 C   0  0  0  0  0  0  0  0  0  0  0  0
    0.0000    0.0000    0.0000 C   0  0  0  0  0  0  0  0  0  0  0  0
    0.0000    0.0000    0.0000 C   0  0  0  0  0  0  0  0  0  0  0  0
    0.0000    0.0000    0.0000 C   0  0  0  0  0  0  0  0  0  0  0  0
    0.0000    0.0000    0.0000 C   0  0  0  0  0  0  0  0  0  0  0  0
    0.0000    0.0000    0.0000 F   0  0  0  0  0  0  0  0  0  0  0  0
    0.0000    0.0000    0.0000 C   0  0  0  0  0  0  0  0  0  0  0  0
    0.0000    0.0000    0.0000 C   0  0  0  0  0  0  0  0  0  0  0  0
  1  2  1  0
  2  3  2  0
  3  4  1  0
  4  5  2  0
  5  6  1  0
  6  7  2  0
  5  8  1  0
  8  9  1  0
  9 10  1  0
 10 11  1  0
 11 12  1  0
 12 13  1  0
 13 14  1  0
 14 15  2  0
 15 16  1  0
 16 17  2  0
 17 18  1  0
 18 19  2  0
 19 20  1  0
 20 21  2  0
 12 22  1  0
 22 23  1  0
  8 24  1  0
 24 25  2  0
 25 26  1  0
 26 27  2  0
 27 28  1  0
 27 29  1  0
 29 30  2  0
  7  2  1  0
 23  9  1  0
 21 16  1  0
 30 24  1  0
M  END
>  <pIC50>  (703) 
5.28

>  <ChEMBL_ID>  (703) 
CHEMBL30008

>  <document_journal>  (703) 
None

>  <bao_endpoint>  (703) 
BAO_0000190

>  <potential_duplicate>  (703) 
False

>  <uo_units>  (703) 
UO_0000065

>  <canonical_smiles>  (703) 
Fc1ccc(cc1)C(N2CCN(C\C=C\c3ccccc3)CC2)c4ccc(F)cc4

>  <parent_molecule_chembl_id>  (703) 
CHEMBL30008

>  <assay_type>  (703) 
B

>  <src_id>  (703) 
15

>  <ligand_efficiency>  (703) 
{u'le': u'0.24', u'bei': u'13.06', u'sei': u'81.5', u'lle': u'-0.66'}

>  <standard_flag>  (703) 
True

>  <molecule_chembl_id>  (703) 
CHEMBL30008

>  <target_organism>  (703) 
Homo sapiens

>  <standard_units>  (703) 
nM

>  <record_id>  (703) 
1539775

>  <document_chembl_id>  (703) 
CHEMBL1909046

>  <bao_format>  (703) 
BAO_0000249

>  <data_validity_description>  (703) 
None

>  <activity_id>  (703) 
7665634

>  <standard_type>  (703) 
IC50

>  <target_chembl_id>  (703) 
CHEMBL233

>  <data_validity_comment>  (703) 
None

>  <published_value>  (703) 
5.236

>  <document_year>  (703) 
None

>  <target_pref_name>  (703) 
Mu opioid receptor

>  <assay_chembl_id>  (703) 
CHEMBL1909182

>  <standard_relation>  (703) 
=

>  <assay_description>  (703) 
DRUGMATRIX: Opiate mu (OP3, MOP) radioligand binding (ligand: [3H] Diprenorphine)

>  <published_relation>  (703) 
=

>  <standard_value>  (703) 
5236

>  <qudt_units>  (703) 
http://www.openphacts.org/units/Nanomolar

>  <target_tax_id>  (703) 
9606

>  <bao_label>  (703) 
cell membrane format

>  <published_units>  (703) 
uM

>  <pchembl_value>  (703) 
5.28

>  <published_type>  (703) 
IC50

>  <activity_comment>  (703) 
None

$$$$

     RDKit          

 30 33  0  0  0  0  0  0  0  0999 V2000
    0.0000    0.0000    0.0000 O   0  0  0  0  0  0  0  0  0  0  0  0
    0.0000    0.0000    0.0000 C   0  0  0  0  0  0  0  0  0  0  0  0
    0.0000    0.0000    0.0000 C   0  0  0  0  0  0  0  0  0  0  0  0
    0.0000    0.0000    0.0000 N   0  0  0  0  0  0  0  0  0  0  0  0
    0.0000    0.0000    0.0000 C   0  0  0  0  0  0  0  0  0  0  0  0
    0.0000    0.0000    0.0000 C   0  0  0  0  0  0  0  0  0  0  0  0
    0.0000    0.0000    0.0000 N   0  0  0  0  0  0  0  0  0  0  0  0
    0.0000    0.0000    0.0000 C   0  0  0  0  0  0  0  0  0  0  0  0
    0.0000    0.0000    0.0000 C   0  0  0  0  0  0  0  0  0  0  0  0
    0.0000    0.0000    0.0000 C   0  0  0  0  0  0  0  0  0  0  0  0
    0.0000    0.0000    0.0000 N   0  0  0  0  0  0  0  0  0  0  0  0
    0.0000    0.0000    0.0000 C   0  0  0  0  0  0  0  0  0  0  0  0
    0.0000    0.0000    0.0000 C   0  0  0  0  0  0  0  0  0  0  0  0
    0.0000    0.0000    0.0000 C   0  0  0  0  0  0  0  0  0  0  0  0
    0.0000    0.0000    0.0000 C   0  0  0  0  0  0  0  0  0  0  0  0
    0.0000    0.0000    0.0000 C   0  0  0  0  0  0  0  0  0  0  0  0
    0.0000    0.0000    0.0000 C   0  0  0  0  0  0  0  0  0  0  0  0
    0.0000    0.0000    0.0000 S   0  0  0  0  0  0  0  0  0  0  0  0
    0.0000    0.0000    0.0000 C   0  0  0  0  0  0  0  0  0  0  0  0
    0.0000    0.0000    0.0000 C   0  0  0  0  0  0  0  0  0  0  0  0
    0.0000    0.0000    0.0000 C   0  0  0  0  0  0  0  0  0  0  0  0
    0.0000    0.0000    0.0000 C   0  0  0  0  0  0  0  0  0  0  0  0
    0.0000    0.0000    0.0000 C   0  0  0  0  0  0  0  0  0  0  0  0
    0.0000    0.0000    0.0000 C   0  0  0  0  0  0  0  0  0  0  0  0
    0.0000    0.0000    0.0000 C   0  0  0  0  0  0  0  0  0  0  0  0
    0.0000    0.0000    0.0000 F   0  0  0  0  0  0  0  0  0  0  0  0
    0.0000    0.0000    0.0000 F   0  0  0  0  0  0  0  0  0  0  0  0
    0.0000    0.0000    0.0000 F   0  0  0  0  0  0  0  0  0  0  0  0
    0.0000    0.0000    0.0000 C   0  0  0  0  0  0  0  0  0  0  0  0
    0.0000    0.0000    0.0000 C   0  0  0  0  0  0  0  0  0  0  0  0
  1  2  1  0
  2  3  1  0
  3  4  1  0
  4  5  1  0
  5  6  1  0
  6  7  1  0
  7  8  1  0
  8  9  1  0
  9 10  1  0
 10 11  1  0
 11 12  1  0
 12 13  2  0
 13 14  1  0
 14 15  2  0
 15 16  1  0
 16 17  2  0
 17 18  1  0
 18 19  1  0
 19 20  2  0
 20 21  1  0
 21 22  2  0
 22 23  1  0
 23 24  2  0
 22 25  1  0
 25 26  1  0
 25 27  1  0
 25 28  1  0
  7 29  1  0
 29 30  1  0
 30  4  1  0
 24 11  1  0
 17 12  1  0
 24 19  1  0
M  END
>  <pIC50>  (704) 
4.68

>  <ChEMBL_ID>  (704) 
CHEMBL726

>  <document_journal>  (704) 
None

>  <bao_endpoint>  (704) 
BAO_0000190

>  <potential_duplicate>  (704) 
False

>  <uo_units>  (704) 
UO_0000065

>  <canonical_smiles>  (704) 
OCCN1CCN(CCCN2c3ccccc3Sc4ccc(cc24)C(F)(F)F)CC1

>  <parent_molecule_chembl_id>  (704) 
CHEMBL726

>  <assay_type>  (704) 
B

>  <src_id>  (704) 
15

>  <ligand_efficiency>  (704) 
{u'le': u'0.21', u'bei': u'10.7', u'sei': u'8.48', u'lle': u'0.24'}

>  <standard_flag>  (704) 
True

>  <molecule_chembl_id>  (704) 
CHEMBL726

>  <target_organism>  (704) 
Homo sapiens

>  <standard_units>  (704) 
nM

>  <record_id>  (704) 
1539784

>  <document_chembl_id>  (704) 
CHEMBL1909046

>  <bao_format>  (704) 
BAO_0000249

>  <data_validity_description>  (704) 
None

>  <activity_id>  (704) 
7670016

>  <standard_type>  (704) 
IC50

>  <target_chembl_id>  (704) 
CHEMBL233

>  <data_validity_comment>  (704) 
None

>  <published_value>  (704) 
20.745

>  <document_year>  (704) 
None

>  <target_pref_name>  (704) 
Mu opioid receptor

>  <assay_chembl_id>  (704) 
CHEMBL1909182

>  <standard_relation>  (704) 
=

>  <assay_description>  (704) 
DRUGMATRIX: Opiate mu (OP3, MOP) radioligand binding (ligand: [3H] Diprenorphine)

>  <published_relation>  (704) 
=

>  <standard_value>  (704) 
20745

>  <qudt_units>  (704) 
http://www.openphacts.org/units/Nanomolar

>  <target_tax_id>  (704) 
9606

>  <bao_label>  (704) 
cell membrane format

>  <published_units>  (704) 
uM

>  <pchembl_value>  (704) 
4.68

>  <published_type>  (704) 
IC50

>  <activity_comment>  (704) 
None

$$$$

     RDKit          

 22 25  0  0  0  0  0  0  0  0999 V2000
    0.0000    0.0000    0.0000 C   0  0  0  0  0  0  0  0  0  0  0  0
    0.0000    0.0000    0.0000 C   0  0  0  0  0  0  0  0  0  0  0  0
    0.0000    0.0000    0.0000 C   0  0  0  0  0  0  0  0  0  0  0  0
    0.0000    0.0000    0.0000 C   0  0  0  0  0  0  0  0  0  0  0  0
    0.0000    0.0000    0.0000 C   0  0  0  0  0  0  0  0  0  0  0  0
    0.0000    0.0000    0.0000 C   0  0  0  0  0  0  0  0  0  0  0  0
    0.0000    0.0000    0.0000 C   0  0  0  0  0  0  0  0  0  0  0  0
    0.0000    0.0000    0.0000 C   0  0  0  0  0  0  0  0  0  0  0  0
    0.0000    0.0000    0.0000 C   0  0  0  0  0  0  0  0  0  0  0  0
    0.0000    0.0000    0.0000 C   0  0  0  0  0  0  0  0  0  0  0  0
    0.0000    0.0000    0.0000 C   0  0  0  0  0  0  0  0  0  0  0  0
    0.0000    0.0000    0.0000 O   0  0  0  0  0  0  0  0  0  0  0  0
    0.0000    0.0000    0.0000 C   0  0  0  0  0  0  0  0  0  0  0  0
    0.0000    0.0000    0.0000 C   0  0  0  0  0  0  0  0  0  0  0  0
    0.0000    0.0000    0.0000 C   0  0  0  0  0  0  0  0  0  0  0  0
    0.0000    0.0000    0.0000 C   0  0  0  0  0  0  0  0  0  0  0  0
    0.0000    0.0000    0.0000 C   0  0  0  0  0  0  0  0  0  0  0  0
    0.0000    0.0000    0.0000 C   0  0  0  0  0  0  0  0  0  0  0  0
    0.0000    0.0000    0.0000 C   0  0  0  0  0  0  0  0  0  0  0  0
    0.0000    0.0000    0.0000 O   0  0  0  0  0  0  0  0  0  0  0  0
    0.0000    0.0000    0.0000 C   0  0  0  0  0  0  0  0  0  0  0  0
    0.0000    0.0000    0.0000 C   0  0  0  0  0  0  0  0  0  0  0  0
  1  2  1  0
  2  3  1  0
  3  4  1  0
  4  5  1  0
  5  6  1  0
  6  7  1  0
  7  8  1  0
  8  9  1  0
  9 10  2  0
 10 11  1  0
 11 12  1  0
 11 13  2  0
 13 14  1  0
 14 15  2  0
  6 16  1  0
 16 17  1  0
 17 18  1  0
 18 19  1  0
 19 20  1  0
 19 21  1  0
 21 22  3  0
 16  2  1  0
 19  2  1  0
 15  5  1  0
 15  9  1  0
M  END
>  <pIC50>  (705) 
4.57

>  <ChEMBL_ID>  (705) 
CHEMBL691

>  <document_journal>  (705) 
None

>  <bao_endpoint>  (705) 
BAO_0000190

>  <potential_duplicate>  (705) 
False

>  <uo_units>  (705) 
UO_0000065

>  <canonical_smiles>  (705) 
C[C@]12CC[C@H]3[C@@H](CCc4cc(O)ccc34)[C@@H]1CC[C@@]2(O)C#C

>  <parent_molecule_chembl_id>  (705) 
CHEMBL691

>  <assay_type>  (705) 
B

>  <src_id>  (705) 
15

>  <ligand_efficiency>  (705) 
{u'le': u'0.28', u'bei': u'15.43', u'sei': u'11.3', u'lle': u'-0.32'}

>  <standard_flag>  (705) 
True

>  <molecule_chembl_id>  (705) 
CHEMBL691

>  <target_organism>  (705) 
Homo sapiens

>  <standard_units>  (705) 
nM

>  <record_id>  (705) 
1539746

>  <document_chembl_id>  (705) 
CHEMBL1909046

>  <bao_format>  (705) 
BAO_0000249

>  <data_validity_description>  (705) 
None

>  <activity_id>  (705) 
7675876

>  <standard_type>  (705) 
IC50

>  <target_chembl_id>  (705) 
CHEMBL233

>  <data_validity_comment>  (705) 
None

>  <published_value>  (705) 
26.769

>  <document_year>  (705) 
None

>  <target_pref_name>  (705) 
Mu opioid receptor

>  <assay_chembl_id>  (705) 
CHEMBL1909182

>  <standard_relation>  (705) 
=

>  <assay_description>  (705) 
DRUGMATRIX: Opiate mu (OP3, MOP) radioligand binding (ligand: [3H] Diprenorphine)

>  <published_relation>  (705) 
=

>  <standard_value>  (705) 
26769

>  <qudt_units>  (705) 
http://www.openphacts.org/units/Nanomolar

>  <target_tax_id>  (705) 
9606

>  <bao_label>  (705) 
cell membrane format

>  <published_units>  (705) 
uM

>  <pchembl_value>  (705) 
4.57

>  <published_type>  (705) 
IC50

>  <activity_comment>  (705) 
None

$$$$

     RDKit          

 26 28  0  0  0  0  0  0  0  0999 V2000
    0.0000    0.0000    0.0000 O   0  0  0  0  0  0  0  0  0  0  0  0
    0.0000    0.0000    0.0000 C   0  0  0  0  0  0  0  0  0  0  0  0
    0.0000    0.0000    0.0000 C   0  0  0  0  0  0  0  0  0  0  0  0
    0.0000    0.0000    0.0000 C   0  0  0  0  0  0  0  0  0  0  0  0
    0.0000    0.0000    0.0000 N   0  0  0  0  0  0  0  0  0  0  0  0
    0.0000    0.0000    0.0000 C   0  0  0  0  0  0  0  0  0  0  0  0
    0.0000    0.0000    0.0000 C   0  0  0  0  0  0  0  0  0  0  0  0
    0.0000    0.0000    0.0000 C   0  0  0  0  0  0  0  0  0  0  0  0
    0.0000    0.0000    0.0000 C   0  0  0  0  0  0  0  0  0  0  0  0
    0.0000    0.0000    0.0000 O   0  0  0  0  0  0  0  0  0  0  0  0
    0.0000    0.0000    0.0000 C   0  0  0  0  0  0  0  0  0  0  0  0
    0.0000    0.0000    0.0000 C   0  0  0  0  0  0  0  0  0  0  0  0
    0.0000    0.0000    0.0000 C   0  0  0  0  0  0  0  0  0  0  0  0
    0.0000    0.0000    0.0000 C   0  0  0  0  0  0  0  0  0  0  0  0
    0.0000    0.0000    0.0000 F   0  0  0  0  0  0  0  0  0  0  0  0
    0.0000    0.0000    0.0000 C   0  0  0  0  0  0  0  0  0  0  0  0
    0.0000    0.0000    0.0000 C   0  0  0  0  0  0  0  0  0  0  0  0
    0.0000    0.0000    0.0000 C   0  0  0  0  0  0  0  0  0  0  0  0
    0.0000    0.0000    0.0000 C   0  0  0  0  0  0  0  0  0  0  0  0
    0.0000    0.0000    0.0000 C   0  0  0  0  0  0  0  0  0  0  0  0
    0.0000    0.0000    0.0000 C   0  0  0  0  0  0  0  0  0  0  0  0
    0.0000    0.0000    0.0000 C   0  0  0  0  0  0  0  0  0  0  0  0
    0.0000    0.0000    0.0000 C   0  0  0  0  0  0  0  0  0  0  0  0
    0.0000    0.0000    0.0000 Cl  0  0  0  0  0  0  0  0  0  0  0  0
    0.0000    0.0000    0.0000 C   0  0  0  0  0  0  0  0  0  0  0  0
    0.0000    0.0000    0.0000 C   0  0  0  0  0  0  0  0  0  0  0  0
  1  2  1  0
  2  3  1  0
  3  4  1  0
  4  5  1  0
  5  6  1  0
  6  7  1  0
  7  8  1  0
  8  9  1  0
  9 10  2  0
  9 11  1  0
 11 12  2  0
 12 13  1  0
 13 14  2  0
 14 15  1  0
 14 16  1  0
 16 17  2  0
  5 18  1  0
 18 19  1  0
  2 20  1  0
 20 21  2  0
 21 22  1  0
 22 23  2  0
 23 24  1  0
 23 25  1  0
 25 26  2  0
 19  2  1  0
 17 11  1  0
 26 20  1  0
M  END
>  <pIC50>  (706) 
5.61

>  <ChEMBL_ID>  (706) 
CHEMBL54

>  <document_journal>  (706) 
None

>  <bao_endpoint>  (706) 
BAO_0000190

>  <potential_duplicate>  (706) 
False

>  <uo_units>  (706) 
UO_0000065

>  <canonical_smiles>  (706) 
OC1(CCN(CCCC(=O)c2ccc(F)cc2)CC1)c3ccc(Cl)cc3

>  <parent_molecule_chembl_id>  (706) 
CHEMBL54

>  <assay_type>  (706) 
B

>  <src_id>  (706) 
15

>  <ligand_efficiency>  (706) 
{u'le': u'0.29', u'bei': u'14.93', u'sei': u'13.84', u'lle': u'1.72'}

>  <standard_flag>  (706) 
True

>  <molecule_chembl_id>  (706) 
CHEMBL54

>  <target_organism>  (706) 
Homo sapiens

>  <standard_units>  (706) 
nM

>  <record_id>  (706) 
1539826

>  <document_chembl_id>  (706) 
CHEMBL1909046

>  <bao_format>  (706) 
BAO_0000249

>  <data_validity_description>  (706) 
None

>  <activity_id>  (706) 
7677157

>  <standard_type>  (706) 
IC50

>  <target_chembl_id>  (706) 
CHEMBL233

>  <data_validity_comment>  (706) 
None

>  <published_value>  (706) 
2.443

>  <document_year>  (706) 
None

>  <target_pref_name>  (706) 
Mu opioid receptor

>  <assay_chembl_id>  (706) 
CHEMBL1909182

>  <standard_relation>  (706) 
=

>  <assay_description>  (706) 
DRUGMATRIX: Opiate mu (OP3, MOP) radioligand binding (ligand: [3H] Diprenorphine)

>  <published_relation>  (706) 
=

>  <standard_value>  (706) 
2443

>  <qudt_units>  (706) 
http://www.openphacts.org/units/Nanomolar

>  <target_tax_id>  (706) 
9606

>  <bao_label>  (706) 
cell membrane format

>  <published_units>  (706) 
uM

>  <pchembl_value>  (706) 
5.61

>  <published_type>  (706) 
IC50

>  <activity_comment>  (706) 
None

$$$$

     RDKit          

 29 33  0  0  0  0  0  0  0  0999 V2000
    0.0000    0.0000    0.0000 C   0  0  0  0  0  0  0  0  0  0  0  0
    0.0000    0.0000    0.0000 C   0  0  0  0  0  0  0  0  0  0  0  0
    0.0000    0.0000    0.0000 O   0  0  0  0  0  0  0  0  0  0  0  0
    0.0000    0.0000    0.0000 O   0  0  0  0  0  0  0  0  0  0  0  0
    0.0000    0.0000    0.0000 C   0  0  0  0  0  0  0  0  0  0  0  0
    0.0000    0.0000    0.0000 C   0  0  0  0  0  0  0  0  0  0  0  0
    0.0000    0.0000    0.0000 C   0  0  0  0  0  0  0  0  0  0  0  0
    0.0000    0.0000    0.0000 C   0  0  0  0  0  0  0  0  0  0  0  0
    0.0000    0.0000    0.0000 C   0  0  0  0  0  0  0  0  0  0  0  0
    0.0000    0.0000    0.0000 C   0  0  0  0  0  0  0  0  0  0  0  0
    0.0000    0.0000    0.0000 C   0  0  0  0  0  0  0  0  0  0  0  0
    0.0000    0.0000    0.0000 Cl  0  0  0  0  0  0  0  0  0  0  0  0
    0.0000    0.0000    0.0000 C   0  0  0  0  0  0  0  0  0  0  0  0
    0.0000    0.0000    0.0000 C   0  0  0  0  0  0  0  0  0  0  0  0
    0.0000    0.0000    0.0000 C   0  0  0  0  0  0  0  0  0  0  0  0
    0.0000    0.0000    0.0000 O   0  0  0  0  0  0  0  0  0  0  0  0
    0.0000    0.0000    0.0000 C   0  0  0  0  0  0  0  0  0  0  0  0
    0.0000    0.0000    0.0000 C   0  0  0  0  0  0  0  0  0  0  0  0
    0.0000    0.0000    0.0000 C   0  0  0  0  0  0  0  0  0  0  0  0
    0.0000    0.0000    0.0000 C   0  0  0  0  0  0  0  0  0  0  0  0
    0.0000    0.0000    0.0000 C   0  0  0  0  0  0  0  0  0  0  0  0
    0.0000    0.0000    0.0000 C   0  0  0  0  0  0  0  0  0  0  0  0
    0.0000    0.0000    0.0000 C   0  0  0  0  0  0  0  0  0  0  0  0
    0.0000    0.0000    0.0000 C   0  0  0  0  0  0  0  0  0  0  0  0
    0.0000    0.0000    0.0000 C   0  0  0  0  0  0  0  0  0  0  0  0
    0.0000    0.0000    0.0000 C   0  0  0  0  0  0  0  0  0  0  0  0
    0.0000    0.0000    0.0000 C   0  0  0  0  0  0  0  0  0  0  0  0
    0.0000    0.0000    0.0000 O   0  0  0  0  0  0  0  0  0  0  0  0
    0.0000    0.0000    0.0000 C   0  0  0  0  0  0  0  0  0  0  0  0
  1  2  1  0
  2  3  2  0
  2  4  1  0
  4  5  1  0
  5  6  1  0
  6  7  1  0
  7  8  1  0
  8  9  1  0
  9 10  1  0
 10 11  2  0
 11 12  1  0
 11 13  1  0
 13 14  2  0
 14 15  1  0
 15 16  2  0
 15 17  1  0
 17 18  1  0
 18 19  1  0
 19 20  1  0
 20 21  1  0
 20 22  1  0
 22 23  1  0
 23 24  1  0
 24 25  1  0
 25 26  1  0
  5 27  1  0
 27 28  2  0
 27 29  1  0
 25  5  1  0
 25  8  1  0
 22  9  1  0
 20 13  1  0
 19 17  1  0
M  END
>  <pIC50>  (707) 
5.66

>  <ChEMBL_ID>  (707) 
CHEMBL139835

>  <document_journal>  (707) 
None

>  <bao_endpoint>  (707) 
BAO_0000190

>  <potential_duplicate>  (707) 
False

>  <uo_units>  (707) 
UO_0000065

>  <canonical_smiles>  (707) 
CC(=O)O[C@@]1(CC[C@H]2[C@@H]3C=C(Cl)C4=CC(=O)[C@@H]5C[C@@H]5[C@]4(C)[C@H]3CC[C@]12C)C(=O)C

>  <parent_molecule_chembl_id>  (707) 
CHEMBL139835

>  <assay_type>  (707) 
B

>  <src_id>  (707) 
15

>  <ligand_efficiency>  (707) 
{u'le': u'0.27', u'bei': u'13.58', u'sei': u'9.37', u'lle': u'2.35'}

>  <standard_flag>  (707) 
True

>  <molecule_chembl_id>  (707) 
CHEMBL139835

>  <target_organism>  (707) 
Homo sapiens

>  <standard_units>  (707) 
nM

>  <record_id>  (707) 
1539665

>  <document_chembl_id>  (707) 
CHEMBL1909046

>  <bao_format>  (707) 
BAO_0000249

>  <data_validity_description>  (707) 
None

>  <activity_id>  (707) 
7680732

>  <standard_type>  (707) 
IC50

>  <target_chembl_id>  (707) 
CHEMBL233

>  <data_validity_comment>  (707) 
None

>  <published_value>  (707) 
2.183

>  <document_year>  (707) 
None

>  <target_pref_name>  (707) 
Mu opioid receptor

>  <assay_chembl_id>  (707) 
CHEMBL1909182

>  <standard_relation>  (707) 
=

>  <assay_description>  (707) 
DRUGMATRIX: Opiate mu (OP3, MOP) radioligand binding (ligand: [3H] Diprenorphine)

>  <published_relation>  (707) 
=

>  <standard_value>  (707) 
2183

>  <qudt_units>  (707) 
http://www.openphacts.org/units/Nanomolar

>  <target_tax_id>  (707) 
9606

>  <bao_label>  (707) 
cell membrane format

>  <published_units>  (707) 
uM

>  <pchembl_value>  (707) 
5.66

>  <published_type>  (707) 
IC50

>  <activity_comment>  (707) 
None

$$$$

     RDKit          

 45 52  0  0  0  0  0  0  0  0999 V2000
    0.0000    0.0000    0.0000 C   0  0  0  0  0  0  0  0  0  0  0  0
    0.0000    0.0000    0.0000 C   0  0  0  0  0  0  0  0  0  0  0  0
    0.0000    0.0000    0.0000 C   0  0  0  0  0  0  0  0  0  0  0  0
    0.0000    0.0000    0.0000 C   0  0  0  0  0  0  0  0  0  0  0  0
    0.0000    0.0000    0.0000 N   0  0  0  0  0  0  0  0  0  0  0  0
    0.0000    0.0000    0.0000 C   0  0  0  0  0  0  0  0  0  0  0  0
    0.0000    0.0000    0.0000 O   0  0  0  0  0  0  0  0  0  0  0  0
    0.0000    0.0000    0.0000 C   0  0  0  0  0  0  0  0  0  0  0  0
    0.0000    0.0000    0.0000 C   0  0  0  0  0  0  0  0  0  0  0  0
    0.0000    0.0000    0.0000 C   0  0  0  0  0  0  0  0  0  0  0  0
    0.0000    0.0000    0.0000 C   0  0  0  0  0  0  0  0  0  0  0  0
    0.0000    0.0000    0.0000 C   0  0  0  0  0  0  0  0  0  0  0  0
    0.0000    0.0000    0.0000 C   0  0  0  0  0  0  0  0  0  0  0  0
    0.0000    0.0000    0.0000 C   0  0  0  0  0  0  0  0  0  0  0  0
    0.0000    0.0000    0.0000 N   0  0  0  0  0  0  0  0  0  0  0  0
    0.0000    0.0000    0.0000 C   0  0  0  0  0  0  0  0  0  0  0  0
    0.0000    0.0000    0.0000 C   0  0  0  0  0  0  0  0  0  0  0  0
    0.0000    0.0000    0.0000 C   0  0  0  0  0  0  0  0  0  0  0  0
    0.0000    0.0000    0.0000 C   0  0  0  0  0  0  0  0  0  0  0  0
    0.0000    0.0000    0.0000 C   0  0  0  0  0  0  0  0  0  0  0  0
    0.0000    0.0000    0.0000 C   0  0  0  0  0  0  0  0  0  0  0  0
    0.0000    0.0000    0.0000 N   0  0  0  0  0  0  0  0  0  0  0  0
    0.0000    0.0000    0.0000 C   0  0  0  0  0  0  0  0  0  0  0  0
    0.0000    0.0000    0.0000 C   0  0  0  0  0  0  0  0  0  0  0  0
    0.0000    0.0000    0.0000 O   0  0  0  0  0  0  0  0  0  0  0  0
    0.0000    0.0000    0.0000 C   0  0  0  0  0  0  0  0  0  0  0  0
    0.0000    0.0000    0.0000 O   0  0  0  0  0  0  0  0  0  0  0  0
    0.0000    0.0000    0.0000 C   0  0  0  0  0  0  0  0  0  0  0  0
    0.0000    0.0000    0.0000 C   0  0  0  0  0  0  0  0  0  0  0  0
    0.0000    0.0000    0.0000 C   0  0  0  0  0  0  0  0  0  0  0  0
    0.0000    0.0000    0.0000 C   0  0  0  0  0  0  0  0  0  0  0  0
    0.0000    0.0000    0.0000 N   0  0  0  0  0  0  0  0  0  0  0  0
    0.0000    0.0000    0.0000 C   0  0  0  0  0  0  0  0  0  0  0  0
    0.0000    0.0000    0.0000 O   0  0  0  0  0  0  0  0  0  0  0  0
    0.0000    0.0000    0.0000 C   0  0  0  0  0  0  0  0  0  0  0  0
    0.0000    0.0000    0.0000 C   0  0  0  0  0  0  0  0  0  0  0  0
    0.0000    0.0000    0.0000 C   0  0  0  0  0  0  0  0  0  0  0  0
    0.0000    0.0000    0.0000 C   0  0  0  0  0  0  0  0  0  0  0  0
    0.0000    0.0000    0.0000 C   0  0  0  0  0  0  0  0  0  0  0  0
    0.0000    0.0000    0.0000 C   0  0  0  0  0  0  0  0  0  0  0  0
    0.0000    0.0000    0.0000 C   0  0  0  0  0  0  0  0  0  0  0  0
    0.0000    0.0000    0.0000 C   0  0  0  0  0  0  0  0  0  0  0  0
    0.0000    0.0000    0.0000 N   0  0  0  0  0  0  0  0  0  0  0  0
    0.0000    0.0000    0.0000 C   0  0  0  0  0  0  0  0  0  0  0  0
    0.0000    0.0000    0.0000 O   0  0  0  0  0  0  0  0  0  0  0  0
  1  2  1  0
  2  3  1  0
  2  4  1  0
  4  5  1  0
  5  6  1  0
  6  7  2  0
  6  8  1  0
  8  9  1  0
  9 10  1  0
 10 11  1  0
 11 12  1  0
 12 13  1  0
 13 14  2  0
 14 15  1  0
 15 16  1  0
 16 17  2  0
 17 18  1  0
 18 19  2  0
 19 20  1  0
 20 21  2  0
 11 22  1  0
 22 23  1  0
 22 24  1  0
  4 25  1  0
 25 26  1  0
 26 27  1  0
 26 28  1  0
 28 29  1  0
 29 30  1  0
 30 31  1  0
 31 32  1  0
 32 33  1  0
 33 34  2  0
 33 35  1  0
 35 36  1  0
 36 37  1  0
 37 38  2  0
 38 39  1  0
 39 40  2  0
 40 41  1  0
 41 42  2  0
 35 43  1  0
 43 44  1  0
 44 45  2  0
 44  4  1  0
 24  8  1  0
 20 10  1  0
 21 13  1  0
 21 16  1  0
 43 26  1  0
 32 28  1  0
 42 37  1  0
M  END
>  <pIC50>  (708) 
6.07

>  <ChEMBL_ID>  (708) 
CHEMBL1255837

>  <document_journal>  (708) 
None

>  <bao_endpoint>  (708) 
BAO_0000190

>  <potential_duplicate>  (708) 
False

>  <uo_units>  (708) 
UO_0000065

>  <canonical_smiles>  (708) 
CC(C)[C@@]1(NC(=O)[C@@H]2C[C@H]3[C@@H](Cc4c[nH]c5cccc3c45)N(C)C2)O[C@@]6(O)[C@@H]7CCCN7C(=O)[C@H](Cc8ccccc8)N6C1=O.CS(=O)(=O)O

>  <parent_molecule_chembl_id>  (708) 
CHEMBL601773

>  <assay_type>  (708) 
B

>  <src_id>  (708) 
15

>  <ligand_efficiency>  (708) 
{u'le': u'0.18', u'bei': u'9.92', u'sei': u'5.14', u'lle': u'1.77'}

>  <standard_flag>  (708) 
True

>  <molecule_chembl_id>  (708) 
CHEMBL1255837

>  <target_organism>  (708) 
Homo sapiens

>  <standard_units>  (708) 
nM

>  <record_id>  (708) 
1539701

>  <document_chembl_id>  (708) 
CHEMBL1909046

>  <bao_format>  (708) 
BAO_0000249

>  <data_validity_description>  (708) 
None

>  <activity_id>  (708) 
7694251

>  <standard_type>  (708) 
IC50

>  <target_chembl_id>  (708) 
CHEMBL233

>  <data_validity_comment>  (708) 
None

>  <published_value>  (708) 
0.85

>  <document_year>  (708) 
None

>  <target_pref_name>  (708) 
Mu opioid receptor

>  <assay_chembl_id>  (708) 
CHEMBL1909182

>  <standard_relation>  (708) 
=

>  <assay_description>  (708) 
DRUGMATRIX: Opiate mu (OP3, MOP) radioligand binding (ligand: [3H] Diprenorphine)

>  <published_relation>  (708) 
=

>  <standard_value>  (708) 
850

>  <qudt_units>  (708) 
http://www.openphacts.org/units/Nanomolar

>  <target_tax_id>  (708) 
9606

>  <bao_label>  (708) 
cell membrane format

>  <published_units>  (708) 
uM

>  <pchembl_value>  (708) 
6.07

>  <published_type>  (708) 
IC50

>  <activity_comment>  (708) 
None

$$$$

     RDKit          

 25 28  0  0  0  0  0  0  0  0999 V2000
    0.0000    0.0000    0.0000 Cl  0  0  0  0  0  0  0  0  0  0  0  0
    0.0000    0.0000    0.0000 C   0  0  0  0  0  0  0  0  0  0  0  0
    0.0000    0.0000    0.0000 C   0  0  0  0  0  0  0  0  0  0  0  0
    0.0000    0.0000    0.0000 C   0  0  0  0  0  0  0  0  0  0  0  0
    0.0000    0.0000    0.0000 C   0  0  0  0  0  0  0  0  0  0  0  0
    0.0000    0.0000    0.0000 C   0  0  0  0  0  0  0  0  0  0  0  0
    0.0000    0.0000    0.0000 C   0  0  0  0  0  0  0  0  0  0  0  0
    0.0000    0.0000    0.0000 C   0  0  0  0  0  0  0  0  0  0  0  0
    0.0000    0.0000    0.0000 C   0  0  0  0  0  0  0  0  0  0  0  0
    0.0000    0.0000    0.0000 C   0  0  0  0  0  0  0  0  0  0  0  0
    0.0000    0.0000    0.0000 C   0  0  0  0  0  0  0  0  0  0  0  0
    0.0000    0.0000    0.0000 C   0  0  0  0  0  0  0  0  0  0  0  0
    0.0000    0.0000    0.0000 C   0  0  0  0  0  0  0  0  0  0  0  0
    0.0000    0.0000    0.0000 C   0  0  0  0  0  0  0  0  0  0  0  0
    0.0000    0.0000    0.0000 C   0  0  0  0  0  0  0  0  0  0  0  0
    0.0000    0.0000    0.0000 C   0  0  0  0  0  0  0  0  0  0  0  0
    0.0000    0.0000    0.0000 C   0  0  0  0  0  0  0  0  0  0  0  0
    0.0000    0.0000    0.0000 C   0  0  0  0  0  0  0  0  0  0  0  0
    0.0000    0.0000    0.0000 C   0  0  0  0  0  0  0  0  0  0  0  0
    0.0000    0.0000    0.0000 C   0  0  0  0  0  0  0  0  0  0  0  0
    0.0000    0.0000    0.0000 N   0  0  0  0  0  0  0  0  0  0  0  0
    0.0000    0.0000    0.0000 C   0  0  0  0  0  0  0  0  0  0  0  0
    0.0000    0.0000    0.0000 C   0  0  0  0  0  0  0  0  0  0  0  0
    0.0000    0.0000    0.0000 N   0  0  0  0  0  0  0  0  0  0  0  0
    0.0000    0.0000    0.0000 C   0  0  0  0  0  0  0  0  0  0  0  0
  1  2  1  0
  2  3  2  0
  3  4  1  0
  4  5  2  0
  5  6  1  0
  6  7  2  0
  7  8  1  0
  8  9  1  0
  9 10  2  0
 10 11  1  0
 11 12  2  0
 12 13  1  0
 13 14  2  0
  8 15  1  0
 15 16  2  0
 16 17  1  0
 17 18  2  0
 18 19  1  0
 19 20  2  0
  8 21  1  0
 21 22  1  0
 22 23  2  0
 23 24  1  0
 24 25  2  0
  7  2  1  0
 14  9  1  0
 20 15  1  0
 25 21  1  0
M  END
>  <pIC50>  (709) 
5.74

>  <ChEMBL_ID>  (709) 
CHEMBL104

>  <document_journal>  (709) 
None

>  <bao_endpoint>  (709) 
BAO_0000190

>  <potential_duplicate>  (709) 
False

>  <uo_units>  (709) 
UO_0000065

>  <canonical_smiles>  (709) 
Clc1ccccc1C(c2ccccc2)(c3ccccc3)n4ccnc4

>  <parent_molecule_chembl_id>  (709) 
CHEMBL104

>  <assay_type>  (709) 
B

>  <src_id>  (709) 
15

>  <ligand_efficiency>  (709) 
{u'le': u'0.31', u'bei': u'16.66', u'sei': u'32.23', u'lle': u'0.52'}

>  <standard_flag>  (709) 
True

>  <molecule_chembl_id>  (709) 
CHEMBL104

>  <target_organism>  (709) 
Homo sapiens

>  <standard_units>  (709) 
nM

>  <record_id>  (709) 
1539645

>  <document_chembl_id>  (709) 
CHEMBL1909046

>  <bao_format>  (709) 
BAO_0000249

>  <data_validity_description>  (709) 
None

>  <activity_id>  (709) 
7697640

>  <standard_type>  (709) 
IC50

>  <target_chembl_id>  (709) 
CHEMBL233

>  <data_validity_comment>  (709) 
None

>  <published_value>  (709) 
1.802

>  <document_year>  (709) 
None

>  <target_pref_name>  (709) 
Mu opioid receptor

>  <assay_chembl_id>  (709) 
CHEMBL1909182

>  <standard_relation>  (709) 
=

>  <assay_description>  (709) 
DRUGMATRIX: Opiate mu (OP3, MOP) radioligand binding (ligand: [3H] Diprenorphine)

>  <published_relation>  (709) 
=

>  <standard_value>  (709) 
1802

>  <qudt_units>  (709) 
http://www.openphacts.org/units/Nanomolar

>  <target_tax_id>  (709) 
9606

>  <bao_label>  (709) 
cell membrane format

>  <published_units>  (709) 
uM

>  <pchembl_value>  (709) 
5.74

>  <published_type>  (709) 
IC50

>  <activity_comment>  (709) 
None

$$$$

     RDKit          

 16 15  0  0  0  0  0  0  0  0999 V2000
    0.0000    0.0000    0.0000 C   0  0  0  0  0  0  0  0  0  0  0  0
    0.0000    0.0000    0.0000 C   0  0  0  0  0  0  0  0  0  0  0  0
    0.0000    0.0000    0.0000 N   0  0  0  0  0  0  0  0  0  0  0  0
    0.0000    0.0000    0.0000 C   0  0  0  0  0  0  0  0  0  0  0  0
    0.0000    0.0000    0.0000 C   0  0  0  0  0  0  0  0  0  0  0  0
    0.0000    0.0000    0.0000 C   0  0  0  0  0  0  0  0  0  0  0  0
    0.0000    0.0000    0.0000 S   0  0  0  0  0  0  0  0  0  0  0  0
    0.0000    0.0000    0.0000 S   0  0  0  0  0  0  0  0  0  0  0  0
    0.0000    0.0000    0.0000 S   0  0  0  0  0  0  0  0  0  0  0  0
    0.0000    0.0000    0.0000 C   0  0  0  0  0  0  0  0  0  0  0  0
    0.0000    0.0000    0.0000 S   0  0  0  0  0  0  0  0  0  0  0  0
    0.0000    0.0000    0.0000 N   0  0  0  0  0  0  0  0  0  0  0  0
    0.0000    0.0000    0.0000 C   0  0  0  0  0  0  0  0  0  0  0  0
    0.0000    0.0000    0.0000 C   0  0  0  0  0  0  0  0  0  0  0  0
    0.0000    0.0000    0.0000 C   0  0  0  0  0  0  0  0  0  0  0  0
    0.0000    0.0000    0.0000 C   0  0  0  0  0  0  0  0  0  0  0  0
  1  2  1  0
  2  3  1  0
  3  4  1  0
  4  5  1  0
  3  6  1  0
  6  7  2  0
  6  8  1  0
  8  9  1  0
  9 10  1  0
 10 11  2  0
 10 12  1  0
 12 13  1  0
 13 14  1  0
 12 15  1  0
 15 16  1  0
M  END
>  <pIC50>  (710) 
5.46

>  <ChEMBL_ID>  (710) 
CHEMBL964

>  <document_journal>  (710) 
None

>  <bao_endpoint>  (710) 
BAO_0000190

>  <potential_duplicate>  (710) 
False

>  <uo_units>  (710) 
UO_0000065

>  <canonical_smiles>  (710) 
CCN(CC)C(=S)SSC(=S)N(CC)CC

>  <parent_molecule_chembl_id>  (710) 
CHEMBL964

>  <assay_type>  (710) 
B

>  <src_id>  (710) 
15

>  <ligand_efficiency>  (710) 
{u'le': u'0.47', u'bei': u'18.39', u'sei': u'4.5', u'lle': u'-0.15'}

>  <standard_flag>  (710) 
True

>  <molecule_chembl_id>  (710) 
CHEMBL964

>  <target_organism>  (710) 
Homo sapiens

>  <standard_units>  (710) 
nM

>  <record_id>  (710) 
1539710

>  <document_chembl_id>  (710) 
CHEMBL1909046

>  <bao_format>  (710) 
BAO_0000249

>  <data_validity_description>  (710) 
None

>  <activity_id>  (710) 
7698619

>  <standard_type>  (710) 
IC50

>  <target_chembl_id>  (710) 
CHEMBL233

>  <data_validity_comment>  (710) 
None

>  <published_value>  (710) 
3.511

>  <document_year>  (710) 
None

>  <target_pref_name>  (710) 
Mu opioid receptor

>  <assay_chembl_id>  (710) 
CHEMBL1909182

>  <standard_relation>  (710) 
=

>  <assay_description>  (710) 
DRUGMATRIX: Opiate mu (OP3, MOP) radioligand binding (ligand: [3H] Diprenorphine)

>  <published_relation>  (710) 
=

>  <standard_value>  (710) 
3511

>  <qudt_units>  (710) 
http://www.openphacts.org/units/Nanomolar

>  <target_tax_id>  (710) 
9606

>  <bao_label>  (710) 
cell membrane format

>  <published_units>  (710) 
uM

>  <pchembl_value>  (710) 
5.46

>  <published_type>  (710) 
IC50

>  <activity_comment>  (710) 
None

$$$$

     RDKit          

 20 21  0  0  0  0  0  0  0  0999 V2000
    0.0000    0.0000    0.0000 C   0  0  0  0  0  0  0  0  0  0  0  0
    0.0000    0.0000    0.0000 C   0  0  0  0  0  0  0  0  0  0  0  0
    0.0000    0.0000    0.0000 C   0  0  0  0  0  0  0  0  0  0  0  0
    0.0000    0.0000    0.0000 C   0  0  0  0  0  0  0  0  0  0  0  0
    0.0000    0.0000    0.0000 C   0  0  0  0  0  0  0  0  0  0  0  0
    0.0000    0.0000    0.0000 C   0  0  0  0  0  0  0  0  0  0  0  0
    0.0000    0.0000    0.0000 C   0  0  0  0  0  0  0  0  0  0  0  0
    0.0000    0.0000    0.0000 C   0  0  0  0  0  0  0  0  0  0  0  0
    0.0000    0.0000    0.0000 C   0  0  0  0  0  0  0  0  0  0  0  0
    0.0000    0.0000    0.0000 C   0  0  0  0  0  0  0  0  0  0  0  0
    0.0000    0.0000    0.0000 O   0  0  0  0  0  0  0  0  0  0  0  0
    0.0000    0.0000    0.0000 C   0  0  0  0  0  0  0  0  0  0  0  0
    0.0000    0.0000    0.0000 C   0  0  0  0  0  0  0  0  0  0  0  0
    0.0000    0.0000    0.0000 C   0  0  0  0  0  0  0  0  0  0  0  0
    0.0000    0.0000    0.0000 C   0  0  0  0  0  0  0  0  0  0  0  0
    0.0000    0.0000    0.0000 C   0  0  0  0  0  0  0  0  0  0  0  0
    0.0000    0.0000    0.0000 C   0  0  0  0  0  0  0  0  0  0  0  0
    0.0000    0.0000    0.0000 O   0  0  0  0  0  0  0  0  0  0  0  0
    0.0000    0.0000    0.0000 C   0  0  0  0  0  0  0  0  0  0  0  0
    0.0000    0.0000    0.0000 C   0  0  0  0  0  0  0  0  0  0  0  0
  1  2  1  0
  2  3  1  0
  3  4  2  0
  4  5  1  0
  5  6  1  0
  4  7  1  0
  7  8  2  0
  8  9  1  0
  9 10  2  0
 10 11  1  0
 10 12  1  0
 12 13  2  0
  3 14  1  0
 14 15  2  0
 15 16  1  0
 16 17  2  0
 17 18  1  0
 17 19  1  0
 19 20  2  0
 13  7  1  0
 20 14  1  0
M  END
>  <pIC50>  (711) 
5.24

>  <ChEMBL_ID>  (711) 
CHEMBL411

>  <document_journal>  (711) 
None

>  <bao_endpoint>  (711) 
BAO_0000190

>  <potential_duplicate>  (711) 
False

>  <uo_units>  (711) 
UO_0000065

>  <canonical_smiles>  (711) 
CC\C(=C(\CC)/c1ccc(O)cc1)\c2ccc(O)cc2

>  <parent_molecule_chembl_id>  (711) 
CHEMBL411

>  <assay_type>  (711) 
B

>  <src_id>  (711) 
15

>  <ligand_efficiency>  (711) 
{u'le': u'0.36', u'bei': u'19.52', u'sei': u'12.95', u'lle': u'0.1'}

>  <standard_flag>  (711) 
True

>  <molecule_chembl_id>  (711) 
CHEMBL411

>  <target_organism>  (711) 
Homo sapiens

>  <standard_units>  (711) 
nM

>  <record_id>  (711) 
1539695

>  <document_chembl_id>  (711) 
CHEMBL1909046

>  <bao_format>  (711) 
BAO_0000249

>  <data_validity_description>  (711) 
None

>  <activity_id>  (711) 
7704800

>  <standard_type>  (711) 
IC50

>  <target_chembl_id>  (711) 
CHEMBL233

>  <data_validity_comment>  (711) 
None

>  <published_value>  (711) 
5.778

>  <document_year>  (711) 
None

>  <target_pref_name>  (711) 
Mu opioid receptor

>  <assay_chembl_id>  (711) 
CHEMBL1909182

>  <standard_relation>  (711) 
=

>  <assay_description>  (711) 
DRUGMATRIX: Opiate mu (OP3, MOP) radioligand binding (ligand: [3H] Diprenorphine)

>  <published_relation>  (711) 
=

>  <standard_value>  (711) 
5778

>  <qudt_units>  (711) 
http://www.openphacts.org/units/Nanomolar

>  <target_tax_id>  (711) 
9606

>  <bao_label>  (711) 
cell membrane format

>  <published_units>  (711) 
uM

>  <pchembl_value>  (711) 
5.24

>  <published_type>  (711) 
IC50

>  <activity_comment>  (711) 
None

$$$$

     RDKit          

 21 23  0  0  0  0  0  0  0  0999 V2000
    0.0000    0.0000    0.0000 C   0  0  0  0  0  0  0  0  0  0  0  0
    0.0000    0.0000    0.0000 N   0  0  0  0  0  0  0  0  0  0  0  0
    0.0000    0.0000    0.0000 C   0  0  0  0  0  0  0  0  0  0  0  0
    0.0000    0.0000    0.0000 C   0  0  0  0  0  0  0  0  0  0  0  0
    0.0000    0.0000    0.0000 C   0  0  0  0  0  0  0  0  0  0  0  0
    0.0000    0.0000    0.0000 C   0  0  0  0  0  0  0  0  0  0  0  0
    0.0000    0.0000    0.0000 N   0  0  0  0  0  0  0  0  0  0  0  0
    0.0000    0.0000    0.0000 C   0  0  0  0  0  0  0  0  0  0  0  0
    0.0000    0.0000    0.0000 C   0  0  0  0  0  0  0  0  0  0  0  0
    0.0000    0.0000    0.0000 C   0  0  0  0  0  0  0  0  0  0  0  0
    0.0000    0.0000    0.0000 C   0  0  0  0  0  0  0  0  0  0  0  0
    0.0000    0.0000    0.0000 C   0  0  0  0  0  0  0  0  0  0  0  0
    0.0000    0.0000    0.0000 C   0  0  0  0  0  0  0  0  0  0  0  0
    0.0000    0.0000    0.0000 S   0  0  0  0  0  0  0  0  0  0  0  0
    0.0000    0.0000    0.0000 C   0  0  0  0  0  0  0  0  0  0  0  0
    0.0000    0.0000    0.0000 C   0  0  0  0  0  0  0  0  0  0  0  0
    0.0000    0.0000    0.0000 C   0  0  0  0  0  0  0  0  0  0  0  0
    0.0000    0.0000    0.0000 C   0  0  0  0  0  0  0  0  0  0  0  0
    0.0000    0.0000    0.0000 Cl  0  0  0  0  0  0  0  0  0  0  0  0
    0.0000    0.0000    0.0000 C   0  0  0  0  0  0  0  0  0  0  0  0
    0.0000    0.0000    0.0000 C   0  0  0  0  0  0  0  0  0  0  0  0
  1  2  1  0
  2  3  1  0
  2  4  1  0
  4  5  1  0
  5  6  1  0
  6  7  1  0
  7  8  1  0
  8  9  2  0
  9 10  1  0
 10 11  2  0
 11 12  1  0
 12 13  2  0
 13 14  1  0
 14 15  1  0
 15 16  2  0
 16 17  1  0
 17 18  2  0
 18 19  1  0
 18 20  1  0
 20 21  2  0
 21  7  1  0
 13  8  1  0
 21 15  1  0
M  END
>  <pIC50>  (712) 
4.84

>  <ChEMBL_ID>  (712) 
CHEMBL71

>  <document_journal>  (712) 
None

>  <bao_endpoint>  (712) 
BAO_0000190

>  <potential_duplicate>  (712) 
False

>  <uo_units>  (712) 
UO_0000065

>  <canonical_smiles>  (712) 
CN(C)CCCN1c2ccccc2Sc3ccc(Cl)cc13

>  <parent_molecule_chembl_id>  (712) 
CHEMBL71

>  <assay_type>  (712) 
B

>  <src_id>  (712) 
15

>  <ligand_efficiency>  (712) 
{u'le': u'0.31', u'bei': u'15.18', u'sei': u'15.24', u'lle': u'0.1'}

>  <standard_flag>  (712) 
True

>  <molecule_chembl_id>  (712) 
CHEMBL71

>  <target_organism>  (712) 
Homo sapiens

>  <standard_units>  (712) 
nM

>  <record_id>  (712) 
1539606

>  <document_chembl_id>  (712) 
CHEMBL1909046

>  <bao_format>  (712) 
BAO_0000249

>  <data_validity_description>  (712) 
None

>  <activity_id>  (712) 
7707771

>  <standard_type>  (712) 
IC50

>  <target_chembl_id>  (712) 
CHEMBL233

>  <data_validity_comment>  (712) 
None

>  <published_value>  (712) 
14.397

>  <document_year>  (712) 
None

>  <target_pref_name>  (712) 
Mu opioid receptor

>  <assay_chembl_id>  (712) 
CHEMBL1909182

>  <standard_relation>  (712) 
=

>  <assay_description>  (712) 
DRUGMATRIX: Opiate mu (OP3, MOP) radioligand binding (ligand: [3H] Diprenorphine)

>  <published_relation>  (712) 
=

>  <standard_value>  (712) 
14397

>  <qudt_units>  (712) 
http://www.openphacts.org/units/Nanomolar

>  <target_tax_id>  (712) 
9606

>  <bao_label>  (712) 
cell membrane format

>  <published_units>  (712) 
uM

>  <pchembl_value>  (712) 
4.84

>  <published_type>  (712) 
IC50

>  <activity_comment>  (712) 
None

$$$$

     RDKit          

 28 31  0  0  0  0  0  0  0  0999 V2000
    0.0000    0.0000    0.0000 C   0  0  0  0  0  0  0  0  0  0  0  0
    0.0000    0.0000    0.0000 C   0  0  0  0  0  0  0  0  0  0  0  0
    0.0000    0.0000    0.0000 C   0  0  0  0  0  0  0  0  0  0  0  0
    0.0000    0.0000    0.0000 C   0  0  0  0  0  0  0  0  0  0  0  0
    0.0000    0.0000    0.0000 C   0  0  0  0  0  0  0  0  0  0  0  0
    0.0000    0.0000    0.0000 C   0  0  0  0  0  0  0  0  0  0  0  0
    0.0000    0.0000    0.0000 C   0  0  0  0  0  0  0  0  0  0  0  0
    0.0000    0.0000    0.0000 C   0  0  0  0  0  0  0  0  0  0  0  0
    0.0000    0.0000    0.0000 C   0  0  0  0  0  0  0  0  0  0  0  0
    0.0000    0.0000    0.0000 N   0  0  0  0  0  0  0  0  0  0  0  0
    0.0000    0.0000    0.0000 C   0  0  0  0  0  0  0  0  0  0  0  0
    0.0000    0.0000    0.0000 C   0  0  0  0  0  0  0  0  0  0  0  0
    0.0000    0.0000    0.0000 N   0  0  0  0  0  0  0  0  0  0  0  0
    0.0000    0.0000    0.0000 C   0  0  0  0  0  0  0  0  0  0  0  0
    0.0000    0.0000    0.0000 C   0  0  0  0  0  0  0  0  0  0  0  0
    0.0000    0.0000    0.0000 C   0  0  0  0  0  0  0  0  0  0  0  0
    0.0000    0.0000    0.0000 C   0  0  0  0  0  0  0  0  0  0  0  0
    0.0000    0.0000    0.0000 C   0  0  0  0  0  0  0  0  0  0  0  0
    0.0000    0.0000    0.0000 C   0  0  0  0  0  0  0  0  0  0  0  0
    0.0000    0.0000    0.0000 C   0  0  0  0  0  0  0  0  0  0  0  0
    0.0000    0.0000    0.0000 C   0  0  0  0  0  0  0  0  0  0  0  0
    0.0000    0.0000    0.0000 C   0  0  0  0  0  0  0  0  0  0  0  0
    0.0000    0.0000    0.0000 C   0  0  0  0  0  0  0  0  0  0  0  0
    0.0000    0.0000    0.0000 C   0  0  0  0  0  0  0  0  0  0  0  0
    0.0000    0.0000    0.0000 C   0  0  0  0  0  0  0  0  0  0  0  0
    0.0000    0.0000    0.0000 C   0  0  0  0  0  0  0  0  0  0  0  0
    0.0000    0.0000    0.0000 C   0  0  0  0  0  0  0  0  0  0  0  0
    0.0000    0.0000    0.0000 C   0  0  0  0  0  0  0  0  0  0  0  0
  1  2  1  0
  2  3  2  0
  3  4  1  0
  4  5  2  0
  5  6  1  0
  6  7  2  0
  7  8  1  0
  8  9  2  0
  1 10  1  0
 10 11  1  0
 11 12  1  0
 12 13  1  0
 13 14  1  0
 14 15  1  0
 13 16  1  0
 16 17  1  0
 17 18  2  0
 18 19  1  0
 19 20  2  0
 20 21  1  0
 21 22  2  0
 16 23  1  0
 23 24  2  0
 24 25  1  0
 25 26  2  0
 26 27  1  0
 27 28  2  0
  9  4  1  0
 15 10  1  0
 22 17  1  0
 28 23  1  0
M  END
>  <pIC50>  (713) 
5.64

>  <ChEMBL_ID>  (713) 
CHEMBL43064

>  <document_journal>  (713) 
None

>  <bao_endpoint>  (713) 
BAO_0000190

>  <potential_duplicate>  (713) 
False

>  <uo_units>  (713) 
UO_0000065

>  <canonical_smiles>  (713) 
C(\C=C\c1ccccc1)N2CCN(CC2)C(c3ccccc3)c4ccccc4

>  <parent_molecule_chembl_id>  (713) 
CHEMBL43064

>  <assay_type>  (713) 
B

>  <src_id>  (713) 
15

>  <ligand_efficiency>  (713) 
{u'le': u'0.28', u'bei': u'15.31', u'sei': u'87.09', u'lle': u'0.12'}

>  <standard_flag>  (713) 
True

>  <molecule_chembl_id>  (713) 
CHEMBL43064

>  <target_organism>  (713) 
Homo sapiens

>  <standard_units>  (713) 
nM

>  <record_id>  (713) 
1539622

>  <document_chembl_id>  (713) 
CHEMBL1909046

>  <bao_format>  (713) 
BAO_0000249

>  <data_validity_description>  (713) 
None

>  <activity_id>  (713) 
7708000

>  <standard_type>  (713) 
IC50

>  <target_chembl_id>  (713) 
CHEMBL233

>  <data_validity_comment>  (713) 
None

>  <published_value>  (713) 
2.272

>  <document_year>  (713) 
None

>  <target_pref_name>  (713) 
Mu opioid receptor

>  <assay_chembl_id>  (713) 
CHEMBL1909182

>  <standard_relation>  (713) 
=

>  <assay_description>  (713) 
DRUGMATRIX: Opiate mu (OP3, MOP) radioligand binding (ligand: [3H] Diprenorphine)

>  <published_relation>  (713) 
=

>  <standard_value>  (713) 
2272

>  <qudt_units>  (713) 
http://www.openphacts.org/units/Nanomolar

>  <target_tax_id>  (713) 
9606

>  <bao_label>  (713) 
cell membrane format

>  <published_units>  (713) 
uM

>  <pchembl_value>  (713) 
5.64

>  <published_type>  (713) 
IC50

>  <activity_comment>  (713) 
None

$$$$

     RDKit          

 30 34  0  0  0  0  0  0  0  0999 V2000
    0.0000    0.0000    0.0000 Cl  0  0  0  0  0  0  0  0  0  0  0  0
    0.0000    0.0000    0.0000 C   0  0  0  0  0  0  0  0  0  0  0  0
    0.0000    0.0000    0.0000 C   0  0  0  0  0  0  0  0  0  0  0  0
    0.0000    0.0000    0.0000 C   0  0  0  0  0  0  0  0  0  0  0  0
    0.0000    0.0000    0.0000 C   0  0  0  0  0  0  0  0  0  0  0  0
    0.0000    0.0000    0.0000 N   0  0  0  0  0  0  0  0  0  0  0  0
    0.0000    0.0000    0.0000 C   0  0  0  0  0  0  0  0  0  0  0  0
    0.0000    0.0000    0.0000 C   0  0  0  0  0  0  0  0  0  0  0  0
    0.0000    0.0000    0.0000 C   0  0  0  0  0  0  0  0  0  0  0  0
    0.0000    0.0000    0.0000 N   0  0  0  0  0  0  0  0  0  0  0  0
    0.0000    0.0000    0.0000 C   0  0  0  0  0  0  0  0  0  0  0  0
    0.0000    0.0000    0.0000 C   0  0  0  0  0  0  0  0  0  0  0  0
    0.0000    0.0000    0.0000 C   0  0  0  0  0  0  0  0  0  0  0  0
    0.0000    0.0000    0.0000 N   0  0  0  0  0  0  0  0  0  0  0  0
    0.0000    0.0000    0.0000 C   0  0  0  0  0  0  0  0  0  0  0  0
    0.0000    0.0000    0.0000 O   0  0  0  0  0  0  0  0  0  0  0  0
    0.0000    0.0000    0.0000 N   0  0  0  0  0  0  0  0  0  0  0  0
    0.0000    0.0000    0.0000 C   0  0  0  0  0  0  0  0  0  0  0  0
    0.0000    0.0000    0.0000 C   0  0  0  0  0  0  0  0  0  0  0  0
    0.0000    0.0000    0.0000 C   0  0  0  0  0  0  0  0  0  0  0  0
    0.0000    0.0000    0.0000 C   0  0  0  0  0  0  0  0  0  0  0  0
    0.0000    0.0000    0.0000 C   0  0  0  0  0  0  0  0  0  0  0  0
    0.0000    0.0000    0.0000 C   0  0  0  0  0  0  0  0  0  0  0  0
    0.0000    0.0000    0.0000 C   0  0  0  0  0  0  0  0  0  0  0  0
    0.0000    0.0000    0.0000 C   0  0  0  0  0  0  0  0  0  0  0  0
    0.0000    0.0000    0.0000 C   0  0  0  0  0  0  0  0  0  0  0  0
    0.0000    0.0000    0.0000 O   0  0  0  0  0  0  0  0  0  0  0  0
    0.0000    0.0000    0.0000 N   0  0  0  0  0  0  0  0  0  0  0  0
    0.0000    0.0000    0.0000 C   0  0  0  0  0  0  0  0  0  0  0  0
    0.0000    0.0000    0.0000 C   0  0  0  0  0  0  0  0  0  0  0  0
  1  2  1  0
  2  3  2  0
  3  4  1  0
  4  5  2  0
  5  6  1  0
  6  7  1  0
  7  8  1  0
  8  9  1  0
  9 10  1  0
 10 11  1  0
 11 12  1  0
 12 13  1  0
 13 14  1  0
 14 15  1  0
 15 16  2  0
 15 17  1  0
 17 18  1  0
 18 19  2  0
 19 20  1  0
 20 21  2  0
 21 22  1  0
 22 23  2  0
 10 24  1  0
 24 25  1  0
  6 26  1  0
 26 27  2  0
 26 28  1  0
 28 29  1  0
 29 30  2  0
 30  2  1  0
 29  5  1  0
 25  7  1  0
 23 14  1  0
 23 18  1  0
M  END
>  <pIC50>  (714) 
5.38

>  <ChEMBL_ID>  (714) 
CHEMBL219916

>  <document_journal>  (714) 
None

>  <bao_endpoint>  (714) 
BAO_0000190

>  <potential_duplicate>  (714) 
False

>  <uo_units>  (714) 
UO_0000065

>  <canonical_smiles>  (714) 
Clc1ccc2N(C3CCN(CCCN4C(=O)Nc5ccccc45)CC3)C(=O)Nc2c1

>  <parent_molecule_chembl_id>  (714) 
CHEMBL219916

>  <assay_type>  (714) 
B

>  <src_id>  (714) 
15

>  <ligand_efficiency>  (714) 
{u'le': u'0.24', u'bei': u'12.62', u'sei': u'7.91', u'lle': u'2.92'}

>  <standard_flag>  (714) 
True

>  <molecule_chembl_id>  (714) 
CHEMBL219916

>  <target_organism>  (714) 
Homo sapiens

>  <standard_units>  (714) 
nM

>  <record_id>  (714) 
1539713

>  <document_chembl_id>  (714) 
CHEMBL1909046

>  <bao_format>  (714) 
BAO_0000249

>  <data_validity_description>  (714) 
None

>  <activity_id>  (714) 
7709590

>  <standard_type>  (714) 
IC50

>  <target_chembl_id>  (714) 
CHEMBL233

>  <data_validity_comment>  (714) 
None

>  <published_value>  (714) 
4.218

>  <document_year>  (714) 
None

>  <target_pref_name>  (714) 
Mu opioid receptor

>  <assay_chembl_id>  (714) 
CHEMBL1909182

>  <standard_relation>  (714) 
=

>  <assay_description>  (714) 
DRUGMATRIX: Opiate mu (OP3, MOP) radioligand binding (ligand: [3H] Diprenorphine)

>  <published_relation>  (714) 
=

>  <standard_value>  (714) 
4218

>  <qudt_units>  (714) 
http://www.openphacts.org/units/Nanomolar

>  <target_tax_id>  (714) 
9606

>  <bao_label>  (714) 
cell membrane format

>  <published_units>  (714) 
uM

>  <pchembl_value>  (714) 
5.38

>  <published_type>  (714) 
IC50

>  <activity_comment>  (714) 
None

$$$$

     RDKit          

 25 29  0  0  0  0  0  0  0  0999 V2000
    0.0000    0.0000    0.0000 C   0  0  0  0  0  0  0  0  0  0  0  0
    0.0000    0.0000    0.0000 C   0  0  0  0  0  0  0  0  0  0  0  0
    0.0000    0.0000    0.0000 C   0  0  0  0  0  0  0  0  0  0  0  0
    0.0000    0.0000    0.0000 C   0  0  0  0  0  0  0  0  0  0  0  0
    0.0000    0.0000    0.0000 C   0  0  0  0  0  0  0  0  0  0  0  0
    0.0000    0.0000    0.0000 N   0  0  0  0  0  0  0  0  0  0  0  0
    0.0000    0.0000    0.0000 O   0  0  0  0  0  0  0  0  0  0  0  0
    0.0000    0.0000    0.0000 C   0  0  0  0  0  0  0  0  0  0  0  0
    0.0000    0.0000    0.0000 C   0  0  0  0  0  0  0  0  0  0  0  0
    0.0000    0.0000    0.0000 C   0  0  0  0  0  0  0  0  0  0  0  0
    0.0000    0.0000    0.0000 C   0  0  0  0  0  0  0  0  0  0  0  0
    0.0000    0.0000    0.0000 C   0  0  0  0  0  0  0  0  0  0  0  0
    0.0000    0.0000    0.0000 C   0  0  0  0  0  0  0  0  0  0  0  0
    0.0000    0.0000    0.0000 C   0  0  0  0  0  0  0  0  0  0  0  0
    0.0000    0.0000    0.0000 C   0  0  0  0  0  0  0  0  0  0  0  0
    0.0000    0.0000    0.0000 C   0  0  0  0  0  0  0  0  0  0  0  0
    0.0000    0.0000    0.0000 C   0  0  0  0  0  0  0  0  0  0  0  0
    0.0000    0.0000    0.0000 C   0  0  0  0  0  0  0  0  0  0  0  0
    0.0000    0.0000    0.0000 C   0  0  0  0  0  0  0  0  0  0  0  0
    0.0000    0.0000    0.0000 C   0  0  0  0  0  0  0  0  0  0  0  0
    0.0000    0.0000    0.0000 C   0  0  0  0  0  0  0  0  0  0  0  0
    0.0000    0.0000    0.0000 C   0  0  0  0  0  0  0  0  0  0  0  0
    0.0000    0.0000    0.0000 O   0  0  0  0  0  0  0  0  0  0  0  0
    0.0000    0.0000    0.0000 C   0  0  0  0  0  0  0  0  0  0  0  0
    0.0000    0.0000    0.0000 C   0  0  0  0  0  0  0  0  0  0  0  0
  1  2  1  0
  2  3  1  0
  3  4  1  0
  4  5  1  0
  5  6  2  0
  6  7  1  0
  7  8  1  0
  8  9  1  0
  9 10  2  0
 10 11  1  0
 11 12  1  0
 12 13  1  0
 13 14  1  0
 14 15  1  0
 15 16  1  0
 16 17  1  0
 17 18  1  0
 17 19  1  0
 19 20  1  0
 20 21  1  0
 21 22  1  0
 22 23  1  0
 22 24  1  0
 24 25  3  0
 10  2  1  0
 14  2  1  0
  8  4  2  0
 19 13  1  0
 22 17  1  0
M  END
>  <pIC50>  (715) 
4.85

>  <ChEMBL_ID>  (715) 
CHEMBL1479

>  <document_journal>  (715) 
None

>  <bao_endpoint>  (715) 
BAO_0000190

>  <potential_duplicate>  (715) 
False

>  <uo_units>  (715) 
UO_0000065

>  <canonical_smiles>  (715) 
C[C@]12Cc3cnoc3C=C1CC[C@@H]4[C@@H]2CC[C@@]5(C)[C@H]4CC[C@@]5(O)C#C

>  <parent_molecule_chembl_id>  (715) 
CHEMBL1479

>  <assay_type>  (715) 
B

>  <src_id>  (715) 
15

>  <ligand_efficiency>  (715) 
{u'le': u'0.27', u'bei': u'14.38', u'sei': u'10.49', u'lle': u'-0.02'}

>  <standard_flag>  (715) 
True

>  <molecule_chembl_id>  (715) 
CHEMBL1479

>  <target_organism>  (715) 
Homo sapiens

>  <standard_units>  (715) 
nM

>  <record_id>  (715) 
1539672

>  <document_chembl_id>  (715) 
CHEMBL1909046

>  <bao_format>  (715) 
BAO_0000249

>  <data_validity_description>  (715) 
None

>  <activity_id>  (715) 
7710978

>  <standard_type>  (715) 
IC50

>  <target_chembl_id>  (715) 
CHEMBL233

>  <data_validity_comment>  (715) 
None

>  <published_value>  (715) 
14.079

>  <document_year>  (715) 
None

>  <target_pref_name>  (715) 
Mu opioid receptor

>  <assay_chembl_id>  (715) 
CHEMBL1909182

>  <standard_relation>  (715) 
=

>  <assay_description>  (715) 
DRUGMATRIX: Opiate mu (OP3, MOP) radioligand binding (ligand: [3H] Diprenorphine)

>  <published_relation>  (715) 
=

>  <standard_value>  (715) 
14079

>  <qudt_units>  (715) 
http://www.openphacts.org/units/Nanomolar

>  <target_tax_id>  (715) 
9606

>  <bao_label>  (715) 
cell membrane format

>  <published_units>  (715) 
uM

>  <pchembl_value>  (715) 
4.85

>  <published_type>  (715) 
IC50

>  <activity_comment>  (715) 
None

$$$$

     RDKit          

 40 43  0  0  0  0  0  0  0  0999 V2000
    0.0000    0.0000    0.0000 C   0  0  0  0  0  0  0  0  0  0  0  0
    0.0000    0.0000    0.0000 C   0  0  0  0  0  0  0  0  0  0  0  0
    0.0000    0.0000    0.0000 C   0  0  0  0  0  0  0  0  0  0  0  0
    0.0000    0.0000    0.0000 O   0  0  0  0  0  0  0  0  0  0  0  0
    0.0000    0.0000    0.0000 C   0  0  0  0  0  0  0  0  0  0  0  0
    0.0000    0.0000    0.0000 C   0  0  0  0  0  0  0  0  0  0  0  0
    0.0000    0.0000    0.0000 C   0  0  0  0  0  0  0  0  0  0  0  0
    0.0000    0.0000    0.0000 C   0  0  0  0  0  0  0  0  0  0  0  0
    0.0000    0.0000    0.0000 C   0  0  0  0  0  0  0  0  0  0  0  0
    0.0000    0.0000    0.0000 O   0  0  0  0  0  0  0  0  0  0  0  0
    0.0000    0.0000    0.0000 N   0  0  0  0  0  0  0  0  0  0  0  0
    0.0000    0.0000    0.0000 C   0  0  0  0  0  0  0  0  0  0  0  0
    0.0000    0.0000    0.0000 C   0  0  0  0  0  0  0  0  0  0  0  0
    0.0000    0.0000    0.0000 S   0  0  0  0  0  0  0  0  0  0  0  0
    0.0000    0.0000    0.0000 C   0  0  0  0  0  0  0  0  0  0  0  0
    0.0000    0.0000    0.0000 C   0  0  0  0  0  0  0  0  0  0  0  0
    0.0000    0.0000    0.0000 C   0  0  0  0  0  0  0  0  0  0  0  0
    0.0000    0.0000    0.0000 C   0  0  0  0  0  0  0  0  0  0  0  0
    0.0000    0.0000    0.0000 C   0  0  0  0  0  0  0  0  0  0  0  0
    0.0000    0.0000    0.0000 C   0  0  0  0  0  0  0  0  0  0  0  0
    0.0000    0.0000    0.0000 C   0  0  0  0  0  0  0  0  0  0  0  0
    0.0000    0.0000    0.0000 O   0  0  0  0  0  0  0  0  0  0  0  0
    0.0000    0.0000    0.0000 C   0  0  0  0  0  0  0  0  0  0  0  0
    0.0000    0.0000    0.0000 N   0  0  0  0  0  0  0  0  0  0  0  0
    0.0000    0.0000    0.0000 C   0  0  0  0  0  0  0  0  0  0  0  0
    0.0000    0.0000    0.0000 C   0  0  0  0  0  0  0  0  0  0  0  0
    0.0000    0.0000    0.0000 C   0  0  0  0  0  0  0  0  0  0  0  0
    0.0000    0.0000    0.0000 C   0  0  0  0  0  0  0  0  0  0  0  0
    0.0000    0.0000    0.0000 C   0  0  0  0  0  0  0  0  0  0  0  0
    0.0000    0.0000    0.0000 C   0  0  0  0  0  0  0  0  0  0  0  0
    0.0000    0.0000    0.0000 C   0  0  0  0  0  0  0  0  0  0  0  0
    0.0000    0.0000    0.0000 C   0  0  0  0  0  0  0  0  0  0  0  0
    0.0000    0.0000    0.0000 C   0  0  0  0  0  0  0  0  0  0  0  0
    0.0000    0.0000    0.0000 C   0  0  0  0  0  0  0  0  0  0  0  0
    0.0000    0.0000    0.0000 O   0  0  0  0  0  0  0  0  0  0  0  0
    0.0000    0.0000    0.0000 N   0  0  0  0  0  0  0  0  0  0  0  0
    0.0000    0.0000    0.0000 C   0  0  0  0  0  0  0  0  0  0  0  0
    0.0000    0.0000    0.0000 C   0  0  0  0  0  0  0  0  0  0  0  0
    0.0000    0.0000    0.0000 C   0  0  0  0  0  0  0  0  0  0  0  0
    0.0000    0.0000    0.0000 C   0  0  0  0  0  0  0  0  0  0  0  0
  1  2  1  0
  2  3  2  0
  3  4  1  0
  3  5  1  0
  5  6  2  0
  6  7  1  0
  7  8  2  0
  8  9  1  0
  9 10  2  0
  9 11  1  0
 11 12  1  0
 12 13  1  0
 13 14  1  0
 14 15  1  0
 15 16  2  0
 16 17  1  0
 17 18  2  0
 18 19  1  0
 19 20  2  0
 12 21  1  0
 21 22  1  0
 21 23  1  0
 23 24  1  0
 24 25  1  0
 25 26  1  0
 26 27  1  0
 27 28  1  0
 28 29  1  0
 29 30  1  0
 30 31  1  0
 31 32  1  0
 32 33  1  0
 33 34  1  0
 34 35  2  0
 34 36  1  0
 36 37  1  0
 37 38  1  0
 37 39  1  0
 37 40  1  0
  8  2  1  0
 20 15  1  0
 33 24  1  0
 31 26  1  0
M  END
>  <pIC50>  (716) 
4.84

>  <ChEMBL_ID>  (716) 
CHEMBL584

>  <document_journal>  (716) 
None

>  <bao_endpoint>  (716) 
BAO_0000190

>  <potential_duplicate>  (716) 
False

>  <uo_units>  (716) 
UO_0000065

>  <canonical_smiles>  (716) 
Cc1c(O)cccc1C(=O)N[C@@H](CSc2ccccc2)[C@H](O)CN3C[C@H]4CCCC[C@H]4C[C@H]3C(=O)NC(C)(C)C

>  <parent_molecule_chembl_id>  (716) 
CHEMBL584

>  <assay_type>  (716) 
B

>  <src_id>  (716) 
15

>  <ligand_efficiency>  (716) 
{u'le': u'0.17', u'bei': u'8.53', u'sei': u'3.81', u'lle': u'-0.45'}

>  <standard_flag>  (716) 
True

>  <molecule_chembl_id>  (716) 
CHEMBL584

>  <target_organism>  (716) 
Homo sapiens

>  <standard_units>  (716) 
nM

>  <record_id>  (716) 
1539979

>  <document_chembl_id>  (716) 
CHEMBL1909046

>  <bao_format>  (716) 
BAO_0000249

>  <data_validity_description>  (716) 
None

>  <activity_id>  (716) 
7741830

>  <standard_type>  (716) 
IC50

>  <target_chembl_id>  (716) 
CHEMBL233

>  <data_validity_comment>  (716) 
None

>  <published_value>  (716) 
14.432

>  <document_year>  (716) 
None

>  <target_pref_name>  (716) 
Mu opioid receptor

>  <assay_chembl_id>  (716) 
CHEMBL1909182

>  <standard_relation>  (716) 
=

>  <assay_description>  (716) 
DRUGMATRIX: Opiate mu (OP3, MOP) radioligand binding (ligand: [3H] Diprenorphine)

>  <published_relation>  (716) 
=

>  <standard_value>  (716) 
14432

>  <qudt_units>  (716) 
http://www.openphacts.org/units/Nanomolar

>  <target_tax_id>  (716) 
9606

>  <bao_label>  (716) 
cell membrane format

>  <published_units>  (716) 
uM

>  <pchembl_value>  (716) 
4.84

>  <published_type>  (716) 
IC50

>  <activity_comment>  (716) 
None

$$$$

     RDKit          

 48 57  0  0  0  0  0  0  0  0999 V2000
    0.0000    0.0000    0.0000 O   0  0  0  0  0  0  0  0  0  0  0  0
    0.0000    0.0000    0.0000 C   0  0  0  0  0  0  0  0  0  0  0  0
    0.0000    0.0000    0.0000 C   0  0  0  0  0  0  0  0  0  0  0  0
    0.0000    0.0000    0.0000 C   0  0  0  0  0  0  0  0  0  0  0  0
    0.0000    0.0000    0.0000 C   0  0  0  0  0  0  0  0  0  0  0  0
    0.0000    0.0000    0.0000 C   0  0  0  0  0  0  0  0  0  0  0  0
    0.0000    0.0000    0.0000 C   0  0  0  0  0  0  0  0  0  0  0  0
    0.0000    0.0000    0.0000 N   0  0  0  0  0  0  0  0  0  0  0  0
    0.0000    0.0000    0.0000 C   0  0  0  0  0  0  0  0  0  0  0  0
    0.0000    0.0000    0.0000 C   0  0  0  0  0  0  0  0  0  0  0  0
    0.0000    0.0000    0.0000 C   0  0  0  0  0  0  0  0  0  0  0  0
    0.0000    0.0000    0.0000 C   0  0  0  0  0  0  0  0  0  0  0  0
    0.0000    0.0000    0.0000 C   0  0  0  0  0  0  0  0  0  0  0  0
    0.0000    0.0000    0.0000 C   0  0  0  0  0  0  0  0  0  0  0  0
    0.0000    0.0000    0.0000 C   0  0  0  0  0  0  0  0  0  0  0  0
    0.0000    0.0000    0.0000 O   0  0  0  0  0  0  0  0  0  0  0  0
    0.0000    0.0000    0.0000 C   0  0  0  0  0  0  0  0  0  0  0  0
    0.0000    0.0000    0.0000 C   0  0  0  0  0  0  0  0  0  0  0  0
    0.0000    0.0000    0.0000 C   0  0  0  0  0  0  0  0  0  0  0  0
    0.0000    0.0000    0.0000 N   0  0  0  0  0  0  0  0  0  0  0  0
    0.0000    0.0000    0.0000 N   0  0  0  0  0  0  0  0  0  0  0  0
    0.0000    0.0000    0.0000 C   0  0  0  0  0  0  0  0  0  0  0  0
    0.0000    0.0000    0.0000 C   0  0  0  0  0  0  0  0  0  0  0  0
    0.0000    0.0000    0.0000 C   0  0  0  0  0  0  0  0  0  0  0  0
    0.0000    0.0000    0.0000 C   0  0  0  0  0  0  0  0  0  0  0  0
    0.0000    0.0000    0.0000 O   0  0  0  0  0  0  0  0  0  0  0  0
    0.0000    0.0000    0.0000 C   0  0  0  0  0  0  0  0  0  0  0  0
    0.0000    0.0000    0.0000 C   0  0  0  0  0  0  0  0  0  0  0  0
    0.0000    0.0000    0.0000 C   0  0  0  0  0  0  0  0  0  0  0  0
    0.0000    0.0000    0.0000 C   0  0  0  0  0  0  0  0  0  0  0  0
    0.0000    0.0000    0.0000 C   0  0  0  0  0  0  0  0  0  0  0  0
    0.0000    0.0000    0.0000 C   0  0  0  0  0  0  0  0  0  0  0  0
    0.0000    0.0000    0.0000 O   0  0  0  0  0  0  0  0  0  0  0  0
    0.0000    0.0000    0.0000 C   0  0  0  0  0  0  0  0  0  0  0  0
    0.0000    0.0000    0.0000 O   0  0  0  0  0  0  0  0  0  0  0  0
    0.0000    0.0000    0.0000 C   0  0  0  0  0  0  0  0  0  0  0  0
    0.0000    0.0000    0.0000 C   0  0  0  0  0  0  0  0  0  0  0  0
    0.0000    0.0000    0.0000 C   0  0  0  0  0  0  0  0  0  0  0  0
    0.0000    0.0000    0.0000 C   0  0  0  0  0  0  0  0  0  0  0  0
    0.0000    0.0000    0.0000 N   0  0  0  0  0  0  0  0  0  0  0  0
    0.0000    0.0000    0.0000 C   0  0  0  0  0  0  0  0  0  0  0  0
    0.0000    0.0000    0.0000 C   0  0  0  0  0  0  0  0  0  0  0  0
    0.0000    0.0000    0.0000 C   0  0  0  0  0  0  0  0  0  0  0  0
    0.0000    0.0000    0.0000 C   0  0  0  0  0  0  0  0  0  0  0  0
    0.0000    0.0000    0.0000 C   0  0  0  0  0  0  0  0  0  0  0  0
    0.0000    0.0000    0.0000 C   0  0  0  0  0  0  0  0  0  0  0  0
    0.0000    0.0000    0.0000 C   0  0  0  0  0  0  0  0  0  0  0  0
    0.0000    0.0000    0.0000 O   0  0  0  0  0  0  0  0  0  0  0  0
  1  2  1  0
  2  3  2  0
  3  4  1  0
  4  5  2  0
  5  6  1  0
  6  7  1  0
  7  8  1  0
  8  9  1  0
  9 10  1  0
 10 11  2  0
  8 12  1  0
 12 13  1  0
 13 14  1  0
 14 15  1  0
 15 16  1  0
 16 17  1  0
 17 18  2  0
 15 19  1  0
 19 20  2  0
 20 21  1  0
 21 22  2  0
 22 23  1  0
 23 24  1  0
 24 25  1  0
 25 26  1  0
 25 27  1  0
 27 28  1  0
 28 29  1  0
 29 30  2  0
 30 31  1  0
 31 32  2  0
 32 33  1  0
 32 34  1  0
 34 35  1  0
 35 36  1  0
 36 37  1  0
 37 38  1  0
 38 39  1  0
 39 40  1  0
 40 41  1  0
 41 42  1  0
 42 43  2  0
 37 44  1  0
 19 45  1  0
 45 46  1  0
 46 47  1  0
 47 48  1  0
 17  2  1  0
 18  5  1  0
 47  7  1  0
 18 14  1  0
 47 14  1  0
 22 36  1  0
 37 25  1  0
 40 27  1  0
 44 29  1  0
 44 34  2  0
M  END
>  <pIC50>  (717) 
8.14

>  <ChEMBL_ID>  (717) 
CHEMBL1618305

>  <document_journal>  (717) 
None

>  <bao_endpoint>  (717) 
BAO_0000190

>  <potential_duplicate>  (717) 
False

>  <uo_units>  (717) 
UO_0000065

>  <canonical_smiles>  (717) 
Oc1ccc2C[C@H]3N(CC=C)CC[C@@]45[C@@H](Oc1c24)\C(=N\N=C\6/CC[C@@]7(O)[C@H]8Cc9ccc(O)c%10O[C@@H]6[C@]7(CCN8CC=C)c9%10)\CC[C@@]35O

>  <parent_molecule_chembl_id>  (717) 
CHEMBL1618305

>  <assay_type>  (717) 
B

>  <src_id>  (717) 
15

>  <ligand_efficiency>  (717) 
{u'le': u'0.23', u'bei': u'12.51', u'sei': u'6.24', u'lle': u'4.92'}

>  <standard_flag>  (717) 
True

>  <molecule_chembl_id>  (717) 
CHEMBL1618305

>  <target_organism>  (717) 
Homo sapiens

>  <standard_units>  (717) 
nM

>  <record_id>  (717) 
1539973

>  <document_chembl_id>  (717) 
CHEMBL1909046

>  <bao_format>  (717) 
BAO_0000249

>  <data_validity_description>  (717) 
None

>  <activity_id>  (717) 
7752378

>  <standard_type>  (717) 
IC50

>  <target_chembl_id>  (717) 
CHEMBL233

>  <data_validity_comment>  (717) 
None

>  <published_value>  (717) 
0.007196

>  <document_year>  (717) 
None

>  <target_pref_name>  (717) 
Mu opioid receptor

>  <assay_chembl_id>  (717) 
CHEMBL1909182

>  <standard_relation>  (717) 
=

>  <assay_description>  (717) 
DRUGMATRIX: Opiate mu (OP3, MOP) radioligand binding (ligand: [3H] Diprenorphine)

>  <published_relation>  (717) 
=

>  <standard_value>  (717) 
7.196

>  <qudt_units>  (717) 
http://www.openphacts.org/units/Nanomolar

>  <target_tax_id>  (717) 
9606

>  <bao_label>  (717) 
cell membrane format

>  <published_units>  (717) 
uM

>  <pchembl_value>  (717) 
8.14

>  <published_type>  (717) 
IC50

>  <activity_comment>  (717) 
None

$$$$

     RDKit          

 25 27  0  0  0  0  0  0  0  0999 V2000
    0.0000    0.0000    0.0000 Cl  0  0  0  0  0  0  0  0  0  0  0  0
    0.0000    0.0000    0.0000 C   0  0  0  0  0  0  0  0  0  0  0  0
    0.0000    0.0000    0.0000 C   0  0  0  0  0  0  0  0  0  0  0  0
    0.0000    0.0000    0.0000 C   0  0  0  0  0  0  0  0  0  0  0  0
    0.0000    0.0000    0.0000 C   0  0  0  0  0  0  0  0  0  0  0  0
    0.0000    0.0000    0.0000 C   0  0  0  0  0  0  0  0  0  0  0  0
    0.0000    0.0000    0.0000 O   0  0  0  0  0  0  0  0  0  0  0  0
    0.0000    0.0000    0.0000 C   0  0  0  0  0  0  0  0  0  0  0  0
    0.0000    0.0000    0.0000 C   0  0  0  0  0  0  0  0  0  0  0  0
    0.0000    0.0000    0.0000 N   0  0  0  0  0  0  0  0  0  0  0  0
    0.0000    0.0000    0.0000 C   0  0  0  0  0  0  0  0  0  0  0  0
    0.0000    0.0000    0.0000 C   0  0  0  0  0  0  0  0  0  0  0  0
    0.0000    0.0000    0.0000 N   0  0  0  0  0  0  0  0  0  0  0  0
    0.0000    0.0000    0.0000 C   0  0  0  0  0  0  0  0  0  0  0  0
    0.0000    0.0000    0.0000 C   0  0  0  0  0  0  0  0  0  0  0  0
    0.0000    0.0000    0.0000 C   0  0  0  0  0  0  0  0  0  0  0  0
    0.0000    0.0000    0.0000 C   0  0  0  0  0  0  0  0  0  0  0  0
    0.0000    0.0000    0.0000 C   0  0  0  0  0  0  0  0  0  0  0  0
    0.0000    0.0000    0.0000 Cl  0  0  0  0  0  0  0  0  0  0  0  0
    0.0000    0.0000    0.0000 C   0  0  0  0  0  0  0  0  0  0  0  0
    0.0000    0.0000    0.0000 C   0  0  0  0  0  0  0  0  0  0  0  0
    0.0000    0.0000    0.0000 Cl  0  0  0  0  0  0  0  0  0  0  0  0
    0.0000    0.0000    0.0000 C   0  0  0  0  0  0  0  0  0  0  0  0
    0.0000    0.0000    0.0000 Cl  0  0  0  0  0  0  0  0  0  0  0  0
    0.0000    0.0000    0.0000 C   0  0  0  0  0  0  0  0  0  0  0  0
  1  2  1  0
  2  3  2  0
  3  4  1  0
  4  5  2  0
  5  6  1  0
  6  7  1  0
  7  8  1  0
  8  9  1  0
  9 10  1  0
 10 11  1  0
 11 12  2  0
 12 13  1  0
 13 14  2  0
  8 15  1  0
 15 16  2  0
 16 17  1  0
 17 18  2  0
 18 19  1  0
 18 20  1  0
 20 21  2  0
 21 22  1  0
  5 23  1  0
 23 24  1  0
 23 25  2  0
 25  2  1  0
 14 10  1  0
 21 15  1  0
M  END
>  <pIC50>  (718) 
5.22

>  <ChEMBL_ID>  (718) 
CHEMBL91

>  <document_journal>  (718) 
None

>  <bao_endpoint>  (718) 
BAO_0000190

>  <potential_duplicate>  (718) 
False

>  <uo_units>  (718) 
UO_0000065

>  <canonical_smiles>  (718) 
Clc1ccc(COC(Cn2ccnc2)c3ccc(Cl)cc3Cl)c(Cl)c1

>  <parent_molecule_chembl_id>  (718) 
CHEMBL91

>  <assay_type>  (718) 
B

>  <src_id>  (718) 
15

>  <ligand_efficiency>  (718) 
{u'le': u'0.29', u'bei': u'12.54', u'sei': u'19.29', u'lle': u'-0.43'}

>  <standard_flag>  (718) 
True

>  <molecule_chembl_id>  (718) 
CHEMBL91

>  <target_organism>  (718) 
Homo sapiens

>  <standard_units>  (718) 
nM

>  <record_id>  (718) 
1539950

>  <document_chembl_id>  (718) 
CHEMBL1909046

>  <bao_format>  (718) 
BAO_0000249

>  <data_validity_description>  (718) 
None

>  <activity_id>  (718) 
7756251

>  <standard_type>  (718) 
IC50

>  <target_chembl_id>  (718) 
CHEMBL233

>  <data_validity_comment>  (718) 
None

>  <published_value>  (718) 
6.059

>  <document_year>  (718) 
None

>  <target_pref_name>  (718) 
Mu opioid receptor

>  <assay_chembl_id>  (718) 
CHEMBL1909182

>  <standard_relation>  (718) 
=

>  <assay_description>  (718) 
DRUGMATRIX: Opiate mu (OP3, MOP) radioligand binding (ligand: [3H] Diprenorphine)

>  <published_relation>  (718) 
=

>  <standard_value>  (718) 
6059

>  <qudt_units>  (718) 
http://www.openphacts.org/units/Nanomolar

>  <target_tax_id>  (718) 
9606

>  <bao_label>  (718) 
cell membrane format

>  <published_units>  (718) 
uM

>  <pchembl_value>  (718) 
5.22

>  <published_type>  (718) 
IC50

>  <activity_comment>  (718) 
None

$$$$

     RDKit          

 32 36  0  0  0  0  0  0  0  0999 V2000
    0.0000    0.0000    0.0000 C   0  0  0  0  0  0  0  0  0  0  0  0
    0.0000    0.0000    0.0000 C   0  0  0  0  0  0  0  0  0  0  0  0
    0.0000    0.0000    0.0000 C   0  0  0  0  0  0  0  0  0  0  0  0
    0.0000    0.0000    0.0000 C   0  0  0  0  0  0  0  0  0  0  0  0
    0.0000    0.0000    0.0000 O   0  0  0  0  0  0  0  0  0  0  0  0
    0.0000    0.0000    0.0000 C   0  0  0  0  0  0  0  0  0  0  0  0
    0.0000    0.0000    0.0000 C   0  0  0  0  0  0  0  0  0  0  0  0
    0.0000    0.0000    0.0000 C   0  0  0  0  0  0  0  0  0  0  0  0
    0.0000    0.0000    0.0000 C   0  0  0  0  0  0  0  0  0  0  0  0
    0.0000    0.0000    0.0000 C   0  0  0  0  0  0  0  0  0  0  0  0
    0.0000    0.0000    0.0000 C   0  0  0  0  0  0  0  0  0  0  0  0
    0.0000    0.0000    0.0000 C   0  0  0  0  0  0  0  0  0  0  0  0
    0.0000    0.0000    0.0000 C   0  0  0  0  0  0  0  0  0  0  0  0
    0.0000    0.0000    0.0000 C   0  0  0  0  0  0  0  0  0  0  0  0
    0.0000    0.0000    0.0000 O   0  0  0  0  0  0  0  0  0  0  0  0
    0.0000    0.0000    0.0000 C   0  0  0  0  0  0  0  0  0  0  0  0
    0.0000    0.0000    0.0000 C   0  0  0  0  0  0  0  0  0  0  0  0
    0.0000    0.0000    0.0000 C   0  0  0  0  0  0  0  0  0  0  0  0
    0.0000    0.0000    0.0000 C   0  0  0  0  0  0  0  0  0  0  0  0
    0.0000    0.0000    0.0000 C   0  0  0  0  0  0  0  0  0  0  0  0
    0.0000    0.0000    0.0000 C   0  0  0  0  0  0  0  0  0  0  0  0
    0.0000    0.0000    0.0000 C   0  0  0  0  0  0  0  0  0  0  0  0
    0.0000    0.0000    0.0000 C   0  0  0  0  0  0  0  0  0  0  0  0
    0.0000    0.0000    0.0000 C   0  0  0  0  0  0  0  0  0  0  0  0
    0.0000    0.0000    0.0000 C   0  0  0  0  0  0  0  0  0  0  0  0
    0.0000    0.0000    0.0000 C   0  0  0  0  0  0  0  0  0  0  0  0
    0.0000    0.0000    0.0000 C   0  0  0  0  0  0  0  0  0  0  0  0
    0.0000    0.0000    0.0000 C   0  0  0  0  0  0  0  0  0  0  0  0
    0.0000    0.0000    0.0000 C   0  0  0  0  0  0  0  0  0  0  0  0
    0.0000    0.0000    0.0000 N   0  0  0  0  0  0  0  0  0  0  0  0
    0.0000    0.0000    0.0000 C   0  0  0  0  0  0  0  0  0  0  0  0
    0.0000    0.0000    0.0000 C   0  0  0  0  0  0  0  0  0  0  0  0
  1  2  1  0
  2  3  3  0
  3  4  1  0
  4  5  1  0
  4  6  1  0
  6  7  1  0
  7  8  1  0
  8  9  1  0
  9 10  1  0
 10 11  1  0
 11 12  1  0
 12 13  2  0
 13 14  1  0
 14 15  2  0
 14 16  1  0
 16 17  1  0
 17 18  1  0
 18 19  2  0
 19 20  1  0
 20 21  1  0
 21 22  1  0
 22 23  1  0
 20 24  1  0
 24 25  2  0
 25 26  1  0
 26 27  2  0
 27 28  1  0
 28 29  2  0
 27 30  1  0
 30 31  1  0
 30 32  1  0
 22  4  1  0
 22  8  1  0
 19  9  1  0
 18 12  1  0
 29 24  1  0
M  END
>  <pIC50>  (719) 
5.61

>  <ChEMBL_ID>  (719) 
CHEMBL1276308

>  <document_journal>  (719) 
None

>  <bao_endpoint>  (719) 
BAO_0000190

>  <potential_duplicate>  (719) 
False

>  <uo_units>  (719) 
UO_0000065

>  <canonical_smiles>  (719) 
CC#C[C@]1(O)CC[C@H]2[C@@H]3CCC4=CC(=O)CCC4=C3[C@H](C[C@]12C)c5ccc(cc5)N(C)C

>  <parent_molecule_chembl_id>  (719) 
CHEMBL1276308

>  <assay_type>  (719) 
B

>  <src_id>  (719) 
15

>  <ligand_efficiency>  (719) 
{u'le': u'0.24', u'bei': u'13.06', u'sei': u'13.84', u'lle': u'-0.05'}

>  <standard_flag>  (719) 
True

>  <molecule_chembl_id>  (719) 
CHEMBL1276308

>  <target_organism>  (719) 
Homo sapiens

>  <standard_units>  (719) 
nM

>  <record_id>  (719) 
1539951

>  <document_chembl_id>  (719) 
CHEMBL1909046

>  <bao_format>  (719) 
BAO_0000249

>  <data_validity_description>  (719) 
None

>  <activity_id>  (719) 
7760519

>  <standard_type>  (719) 
IC50

>  <target_chembl_id>  (719) 
CHEMBL233

>  <data_validity_comment>  (719) 
None

>  <published_value>  (719) 
2.457

>  <document_year>  (719) 
None

>  <target_pref_name>  (719) 
Mu opioid receptor

>  <assay_chembl_id>  (719) 
CHEMBL1909182

>  <standard_relation>  (719) 
=

>  <assay_description>  (719) 
DRUGMATRIX: Opiate mu (OP3, MOP) radioligand binding (ligand: [3H] Diprenorphine)

>  <published_relation>  (719) 
=

>  <standard_value>  (719) 
2457

>  <qudt_units>  (719) 
http://www.openphacts.org/units/Nanomolar

>  <target_tax_id>  (719) 
9606

>  <bao_label>  (719) 
cell membrane format

>  <published_units>  (719) 
uM

>  <pchembl_value>  (719) 
5.61

>  <published_type>  (719) 
IC50

>  <activity_comment>  (719) 
None

$$$$

     RDKit          

 34 37  0  0  0  0  0  0  0  0999 V2000
    0.0000    0.0000    0.0000 C   0  0  0  0  0  0  0  0  0  0  0  0
    0.0000    0.0000    0.0000 N   0  0  0  0  0  0  0  0  0  0  0  0
    0.0000    0.0000    0.0000 C   0  0  0  0  0  0  0  0  0  0  0  0
    0.0000    0.0000    0.0000 C   0  0  0  0  0  0  0  0  0  0  0  0
    0.0000    0.0000    0.0000 O   0  0  0  0  0  0  0  0  0  0  0  0
    0.0000    0.0000    0.0000 C   0  0  0  0  0  0  0  0  0  0  0  0
    0.0000    0.0000    0.0000 C   0  0  0  0  0  0  0  0  0  0  0  0
    0.0000    0.0000    0.0000 C   0  0  0  0  0  0  0  0  0  0  0  0
    0.0000    0.0000    0.0000 N   0  0  0  0  0  0  0  0  0  0  0  0
    0.0000    0.0000    0.0000 C   0  0  0  0  0  0  0  0  0  0  0  0
    0.0000    0.0000    0.0000 C   0  0  0  0  0  0  0  0  0  0  0  0
    0.0000    0.0000    0.0000 C   0  0  0  0  0  0  0  0  0  0  0  0
    0.0000    0.0000    0.0000 O   0  0  0  0  0  0  0  0  0  0  0  0
    0.0000    0.0000    0.0000 C   0  0  0  0  0  0  0  0  0  0  0  0
    0.0000    0.0000    0.0000 C   0  0  0  0  0  0  0  0  0  0  0  0
    0.0000    0.0000    0.0000 C   0  0  0  0  0  0  0  0  0  0  0  0
    0.0000    0.0000    0.0000 C   0  0  0  0  0  0  0  0  0  0  0  0
    0.0000    0.0000    0.0000 C   0  0  0  0  0  0  0  0  0  0  0  0
    0.0000    0.0000    0.0000 C   0  0  0  0  0  0  0  0  0  0  0  0
    0.0000    0.0000    0.0000 Cl  0  0  0  0  0  0  0  0  0  0  0  0
    0.0000    0.0000    0.0000 C   0  0  0  0  0  0  0  0  0  0  0  0
    0.0000    0.0000    0.0000 C   0  0  0  0  0  0  0  0  0  0  0  0
    0.0000    0.0000    0.0000 C   0  0  0  0  0  0  0  0  0  0  0  0
    0.0000    0.0000    0.0000 C   0  0  0  0  0  0  0  0  0  0  0  0
    0.0000    0.0000    0.0000 C   0  0  0  0  0  0  0  0  0  0  0  0
    0.0000    0.0000    0.0000 C   0  0  0  0  0  0  0  0  0  0  0  0
    0.0000    0.0000    0.0000 C   0  0  0  0  0  0  0  0  0  0  0  0
    0.0000    0.0000    0.0000 C   0  0  0  0  0  0  0  0  0  0  0  0
    0.0000    0.0000    0.0000 C   0  0  0  0  0  0  0  0  0  0  0  0
    0.0000    0.0000    0.0000 C   0  0  0  0  0  0  0  0  0  0  0  0
    0.0000    0.0000    0.0000 C   0  0  0  0  0  0  0  0  0  0  0  0
    0.0000    0.0000    0.0000 C   0  0  0  0  0  0  0  0  0  0  0  0
    0.0000    0.0000    0.0000 C   0  0  0  0  0  0  0  0  0  0  0  0
    0.0000    0.0000    0.0000 C   0  0  0  0  0  0  0  0  0  0  0  0
  1  2  1  0
  2  3  1  0
  2  4  1  0
  4  5  2  0
  4  6  1  0
  6  7  1  0
  7  8  1  0
  8  9  1  0
  9 10  1  0
 10 11  1  0
 11 12  1  0
 12 13  1  0
 12 14  1  0
 14 15  1  0
 12 16  1  0
 16 17  2  0
 17 18  1  0
 18 19  2  0
 19 20  1  0
 19 21  1  0
 21 22  2  0
  6 23  1  0
 23 24  2  0
 24 25  1  0
 25 26  2  0
 26 27  1  0
 27 28  2  0
  6 29  1  0
 29 30  2  0
 30 31  1  0
 31 32  2  0
 32 33  1  0
 33 34  2  0
 15  9  1  0
 22 16  1  0
 28 23  1  0
 34 29  1  0
M  END
>  <pIC50>  (720) 
8.84

>  <ChEMBL_ID>  (720) 
CHEMBL841

>  <document_journal>  (720) 
None

>  <bao_endpoint>  (720) 
BAO_0000190

>  <potential_duplicate>  (720) 
False

>  <uo_units>  (720) 
UO_0000065

>  <canonical_smiles>  (720) 
CN(C)C(=O)C(CCN1CCC(O)(CC1)c2ccc(Cl)cc2)(c3ccccc3)c4ccccc4

>  <parent_molecule_chembl_id>  (720) 
CHEMBL841

>  <assay_type>  (720) 
B

>  <src_id>  (720) 
15

>  <ligand_efficiency>  (720) 
{u'le': u'0.36', u'bei': u'18.53', u'sei': u'20.19', u'lle': u'4.2'}

>  <standard_flag>  (720) 
True

>  <molecule_chembl_id>  (720) 
CHEMBL841

>  <target_organism>  (720) 
Homo sapiens

>  <standard_units>  (720) 
nM

>  <record_id>  (720) 
1539897

>  <document_chembl_id>  (720) 
CHEMBL1909046

>  <bao_format>  (720) 
BAO_0000249

>  <data_validity_description>  (720) 
None

>  <activity_id>  (720) 
7774537

>  <standard_type>  (720) 
IC50

>  <target_chembl_id>  (720) 
CHEMBL233

>  <data_validity_comment>  (720) 
None

>  <published_value>  (720) 
0.001445

>  <document_year>  (720) 
None

>  <target_pref_name>  (720) 
Mu opioid receptor

>  <assay_chembl_id>  (720) 
CHEMBL1909182

>  <standard_relation>  (720) 
=

>  <assay_description>  (720) 
DRUGMATRIX: Opiate mu (OP3, MOP) radioligand binding (ligand: [3H] Diprenorphine)

>  <published_relation>  (720) 
=

>  <standard_value>  (720) 
1.445

>  <qudt_units>  (720) 
http://www.openphacts.org/units/Nanomolar

>  <target_tax_id>  (720) 
9606

>  <bao_label>  (720) 
cell membrane format

>  <published_units>  (720) 
uM

>  <pchembl_value>  (720) 
8.84

>  <published_type>  (720) 
IC50

>  <activity_comment>  (720) 
None

$$$$

     RDKit          

 38 43  0  0  0  0  0  0  0  0999 V2000
    0.0000    0.0000    0.0000 C   0  0  0  0  0  0  0  0  0  0  0  0
    0.0000    0.0000    0.0000 C   0  0  0  0  0  0  0  0  0  0  0  0
    0.0000    0.0000    0.0000 C   0  0  0  0  0  0  0  0  0  0  0  0
    0.0000    0.0000    0.0000 C   0  0  0  0  0  0  0  0  0  0  0  0
    0.0000    0.0000    0.0000 C   0  0  0  0  0  0  0  0  0  0  0  0
    0.0000    0.0000    0.0000 O   0  0  0  0  0  0  0  0  0  0  0  0
    0.0000    0.0000    0.0000 C   0  0  0  0  0  0  0  0  0  0  0  0
    0.0000    0.0000    0.0000 C   0  0  0  0  0  0  0  0  0  0  0  0
    0.0000    0.0000    0.0000 C   0  0  0  0  0  0  0  0  0  0  0  0
    0.0000    0.0000    0.0000 N   0  0  0  0  0  0  0  0  0  0  0  0
    0.0000    0.0000    0.0000 C   0  0  0  0  0  0  0  0  0  0  0  0
    0.0000    0.0000    0.0000 C   0  0  0  0  0  0  0  0  0  0  0  0
    0.0000    0.0000    0.0000 N   0  0  0  0  0  0  0  0  0  0  0  0
    0.0000    0.0000    0.0000 C   0  0  0  0  0  0  0  0  0  0  0  0
    0.0000    0.0000    0.0000 C   0  0  0  0  0  0  0  0  0  0  0  0
    0.0000    0.0000    0.0000 C   0  0  0  0  0  0  0  0  0  0  0  0
    0.0000    0.0000    0.0000 C   0  0  0  0  0  0  0  0  0  0  0  0
    0.0000    0.0000    0.0000 C   0  0  0  0  0  0  0  0  0  0  0  0
    0.0000    0.0000    0.0000 N   0  0  0  0  0  0  0  0  0  0  0  0
    0.0000    0.0000    0.0000 C   0  0  0  0  0  0  0  0  0  0  0  0
    0.0000    0.0000    0.0000 N   0  0  0  0  0  0  0  0  0  0  0  0
    0.0000    0.0000    0.0000 N   0  0  0  0  0  0  0  0  0  0  0  0
    0.0000    0.0000    0.0000 C   0  0  0  0  0  0  0  0  0  0  0  0
    0.0000    0.0000    0.0000 C   0  0  0  0  0  0  0  0  0  0  0  0
    0.0000    0.0000    0.0000 C   0  0  0  0  0  0  0  0  0  0  0  0
    0.0000    0.0000    0.0000 C   0  0  0  0  0  0  0  0  0  0  0  0
    0.0000    0.0000    0.0000 N   0  0  0  0  0  0  0  0  0  0  0  0
    0.0000    0.0000    0.0000 C   0  0  0  0  0  0  0  0  0  0  0  0
    0.0000    0.0000    0.0000 C   0  0  0  0  0  0  0  0  0  0  0  0
    0.0000    0.0000    0.0000 C   0  0  0  0  0  0  0  0  0  0  0  0
    0.0000    0.0000    0.0000 C   0  0  0  0  0  0  0  0  0  0  0  0
    0.0000    0.0000    0.0000 C   0  0  0  0  0  0  0  0  0  0  0  0
    0.0000    0.0000    0.0000 C   0  0  0  0  0  0  0  0  0  0  0  0
    0.0000    0.0000    0.0000 C   0  0  0  0  0  0  0  0  0  0  0  0
    0.0000    0.0000    0.0000 C   0  0  0  0  0  0  0  0  0  0  0  0
    0.0000    0.0000    0.0000 C   0  0  0  0  0  0  0  0  0  0  0  0
    0.0000    0.0000    0.0000 C   0  0  0  0  0  0  0  0  0  0  0  0
    0.0000    0.0000    0.0000 O   0  0  0  0  0  0  0  0  0  0  0  0
  1  2  1  0
  2  3  2  0
  3  4  1  0
  3  5  1  0
  5  6  1  0
  6  7  1  0
  7  8  1  0
  7  9  1  0
  9 10  1  0
 10 11  1  0
 11 12  1  0
 12 13  1  0
 13 14  1  0
 14 15  1  0
 13 16  1  0
 16 17  2  0
 17 18  1  0
 18 19  2  0
 19 20  1  0
 20 21  2  0
 20 22  1  0
 22 23  1  0
 23 24  1  0
 24 25  1  0
 25 26  1  0
 18 27  1  0
 27 28  1  0
 28 29  1  0
 29 30  1  0
 30 31  1  0
  7 32  1  0
 32 33  1  0
 33 34  1  0
 34 35  1  0
 35 36  1  0
 35 37  2  0
 37 38  1  0
 37  2  1  0
 34  5  2  0
 15 10  1  0
 21 16  1  0
 26 22  1  0
 31 27  1  0
M  END
>  <pIC50>  (721) 
4.97

>  <ChEMBL_ID>  (721) 
CHEMBL141343

>  <document_journal>  (721) 
None

>  <bao_endpoint>  (721) 
BAO_0000190

>  <potential_duplicate>  (721) 
False

>  <uo_units>  (721) 
UO_0000065

>  <canonical_smiles>  (721) 
Cc1c(C)c2OC(C)(CN3CCN(CC3)c4cc(nc(n4)N5CCCC5)N6CCCC6)CCc2c(C)c1O

>  <parent_molecule_chembl_id>  (721) 
CHEMBL141343

>  <assay_type>  (721) 
B

>  <src_id>  (721) 
15

>  <ligand_efficiency>  (721) 
{u'le': u'0.18', u'bei': u'9.54', u'sei': u'7.29', u'lle': u'-1.66'}

>  <standard_flag>  (721) 
True

>  <molecule_chembl_id>  (721) 
CHEMBL141343

>  <target_organism>  (721) 
Homo sapiens

>  <standard_units>  (721) 
nM

>  <record_id>  (721) 
1540259

>  <document_chembl_id>  (721) 
CHEMBL1909046

>  <bao_format>  (721) 
BAO_0000249

>  <data_validity_description>  (721) 
None

>  <activity_id>  (721) 
7788124

>  <standard_type>  (721) 
IC50

>  <target_chembl_id>  (721) 
CHEMBL233

>  <data_validity_comment>  (721) 
None

>  <published_value>  (721) 
10.747

>  <document_year>  (721) 
None

>  <target_pref_name>  (721) 
Mu opioid receptor

>  <assay_chembl_id>  (721) 
CHEMBL1909182

>  <standard_relation>  (721) 
=

>  <assay_description>  (721) 
DRUGMATRIX: Opiate mu (OP3, MOP) radioligand binding (ligand: [3H] Diprenorphine)

>  <published_relation>  (721) 
=

>  <standard_value>  (721) 
10747

>  <qudt_units>  (721) 
http://www.openphacts.org/units/Nanomolar

>  <target_tax_id>  (721) 
9606

>  <bao_label>  (721) 
cell membrane format

>  <published_units>  (721) 
uM

>  <pchembl_value>  (721) 
4.97

>  <published_type>  (721) 
IC50

>  <activity_comment>  (721) 
None

$$$$

     RDKit          

 44 49  0  0  0  0  0  0  0  0999 V2000
    0.0000    0.0000    0.0000 C   0  0  0  0  0  0  0  0  0  0  0  0
    0.0000    0.0000    0.0000 O   0  0  0  0  0  0  0  0  0  0  0  0
    0.0000    0.0000    0.0000 C   0  0  0  0  0  0  0  0  0  0  0  0
    0.0000    0.0000    0.0000 C   0  0  0  0  0  0  0  0  0  0  0  0
    0.0000    0.0000    0.0000 C   0  0  0  0  0  0  0  0  0  0  0  0
    0.0000    0.0000    0.0000 C   0  0  0  0  0  0  0  0  0  0  0  0
    0.0000    0.0000    0.0000 C   0  0  0  0  0  0  0  0  0  0  0  0
    0.0000    0.0000    0.0000 N   0  0  0  0  0  0  0  0  0  0  0  0
    0.0000    0.0000    0.0000 C   0  0  0  0  0  0  0  0  0  0  0  0
    0.0000    0.0000    0.0000 C   0  0  0  0  0  0  0  0  0  0  0  0
    0.0000    0.0000    0.0000 C   0  0  0  0  0  0  0  0  0  0  0  0
    0.0000    0.0000    0.0000 C   0  0  0  0  0  0  0  0  0  0  0  0
    0.0000    0.0000    0.0000 N   0  0  0  0  0  0  0  0  0  0  0  0
    0.0000    0.0000    0.0000 C   0  0  0  0  0  0  0  0  0  0  0  0
    0.0000    0.0000    0.0000 C   0  0  0  0  0  0  0  0  0  0  0  0
    0.0000    0.0000    0.0000 C   0  0  0  0  0  0  0  0  0  0  0  0
    0.0000    0.0000    0.0000 O   0  0  0  0  0  0  0  0  0  0  0  0
    0.0000    0.0000    0.0000 C   0  0  0  0  0  0  0  0  0  0  0  0
    0.0000    0.0000    0.0000 C   0  0  0  0  0  0  0  0  0  0  0  0
    0.0000    0.0000    0.0000 C   0  0  0  0  0  0  0  0  0  0  0  0
    0.0000    0.0000    0.0000 C   0  0  0  0  0  0  0  0  0  0  0  0
    0.0000    0.0000    0.0000 C   0  0  0  0  0  0  0  0  0  0  0  0
    0.0000    0.0000    0.0000 C   0  0  0  0  0  0  0  0  0  0  0  0
    0.0000    0.0000    0.0000 C   0  0  0  0  0  0  0  0  0  0  0  0
    0.0000    0.0000    0.0000 C   0  0  0  0  0  0  0  0  0  0  0  0
    0.0000    0.0000    0.0000 C   0  0  0  0  0  0  0  0  0  0  0  0
    0.0000    0.0000    0.0000 O   0  0  0  0  0  0  0  0  0  0  0  0
    0.0000    0.0000    0.0000 O   0  0  0  0  0  0  0  0  0  0  0  0
    0.0000    0.0000    0.0000 C   0  0  0  0  0  0  0  0  0  0  0  0
    0.0000    0.0000    0.0000 O   0  0  0  0  0  0  0  0  0  0  0  0
    0.0000    0.0000    0.0000 C   0  0  0  0  0  0  0  0  0  0  0  0
    0.0000    0.0000    0.0000 O   0  0  0  0  0  0  0  0  0  0  0  0
    0.0000    0.0000    0.0000 C   0  0  0  0  0  0  0  0  0  0  0  0
    0.0000    0.0000    0.0000 C   0  0  0  0  0  0  0  0  0  0  0  0
    0.0000    0.0000    0.0000 C   0  0  0  0  0  0  0  0  0  0  0  0
    0.0000    0.0000    0.0000 O   0  0  0  0  0  0  0  0  0  0  0  0
    0.0000    0.0000    0.0000 C   0  0  0  0  0  0  0  0  0  0  0  0
    0.0000    0.0000    0.0000 C   0  0  0  0  0  0  0  0  0  0  0  0
    0.0000    0.0000    0.0000 O   0  0  0  0  0  0  0  0  0  0  0  0
    0.0000    0.0000    0.0000 C   0  0  0  0  0  0  0  0  0  0  0  0
    0.0000    0.0000    0.0000 C   0  0  0  0  0  0  0  0  0  0  0  0
    0.0000    0.0000    0.0000 O   0  0  0  0  0  0  0  0  0  0  0  0
    0.0000    0.0000    0.0000 C   0  0  0  0  0  0  0  0  0  0  0  0
    0.0000    0.0000    0.0000 C   0  0  0  0  0  0  0  0  0  0  0  0
  1  2  1  0
  2  3  1  0
  3  4  1  0
  4  5  1  0
  5  6  1  0
  6  7  1  0
  7  8  1  0
  8  9  1  0
  9 10  1  0
 10 11  1  0
 11 12  2  0
 12 13  1  0
 13 14  1  0
 14 15  2  0
 15 16  1  0
 16 17  1  0
 17 18  1  0
 16 19  2  0
 19 20  1  0
 20 21  2  0
 12 22  1  0
 22 23  1  0
 23 24  1  0
 24 25  1  0
 25 26  1  0
 26 27  2  0
 26 28  1  0
 28 29  1  0
  4 30  1  0
 30 31  1  0
 31 32  2  0
 31 33  1  0
 33 34  2  0
 34 35  1  0
 35 36  1  0
 36 37  1  0
 35 38  2  0
 38 39  1  0
 39 40  1  0
 38 41  1  0
 41 42  1  0
 42 43  1  0
 41 44  2  0
 25  3  1  0
 24  6  1  0
 22  8  1  0
 21 11  1  0
 21 14  1  0
 44 33  1  0
M  END
>  <pIC50>  (722) 
5.38

>  <ChEMBL_ID>  (722) 
CHEMBL772

>  <document_journal>  (722) 
None

>  <bao_endpoint>  (722) 
BAO_0000190

>  <potential_duplicate>  (722) 
False

>  <uo_units>  (722) 
UO_0000065

>  <canonical_smiles>  (722) 
CO[C@H]1[C@@H](C[C@@H]2CN3CCc4c([nH]c5cc(OC)ccc45)[C@H]3C[C@@H]2[C@@H]1C(=O)OC)OC(=O)c6cc(OC)c(OC)c(OC)c6

>  <parent_molecule_chembl_id>  (722) 
CHEMBL772

>  <assay_type>  (722) 
B

>  <src_id>  (722) 
15

>  <ligand_efficiency>  (722) 
{u'le': u'0.17', u'bei': u'8.84', u'sei': u'4.57', u'lle': u'1.14'}

>  <standard_flag>  (722) 
True

>  <molecule_chembl_id>  (722) 
CHEMBL772

>  <target_organism>  (722) 
Homo sapiens

>  <standard_units>  (722) 
nM

>  <record_id>  (722) 
1540111

>  <document_chembl_id>  (722) 
CHEMBL1909046

>  <bao_format>  (722) 
BAO_0000249

>  <data_validity_description>  (722) 
None

>  <activity_id>  (722) 
7802523

>  <standard_type>  (722) 
IC50

>  <target_chembl_id>  (722) 
CHEMBL233

>  <data_validity_comment>  (722) 
None

>  <published_value>  (722) 
4.152

>  <document_year>  (722) 
None

>  <target_pref_name>  (722) 
Mu opioid receptor

>  <assay_chembl_id>  (722) 
CHEMBL1909182

>  <standard_relation>  (722) 
=

>  <assay_description>  (722) 
DRUGMATRIX: Opiate mu (OP3, MOP) radioligand binding (ligand: [3H] Diprenorphine)

>  <published_relation>  (722) 
=

>  <standard_value>  (722) 
4152

>  <qudt_units>  (722) 
http://www.openphacts.org/units/Nanomolar

>  <target_tax_id>  (722) 
9606

>  <bao_label>  (722) 
cell membrane format

>  <published_units>  (722) 
uM

>  <pchembl_value>  (722) 
5.38

>  <published_type>  (722) 
IC50

>  <activity_comment>  (722) 
None

$$$$

     RDKit          

 24 26  0  0  0  0  0  0  0  0999 V2000
    0.0000    0.0000    0.0000 C   0  0  0  0  0  0  0  0  0  0  0  0
    0.0000    0.0000    0.0000 S   0  0  0  0  0  0  0  0  0  0  0  0
    0.0000    0.0000    0.0000 C   0  0  0  0  0  0  0  0  0  0  0  0
    0.0000    0.0000    0.0000 C   0  0  0  0  0  0  0  0  0  0  0  0
    0.0000    0.0000    0.0000 C   0  0  0  0  0  0  0  0  0  0  0  0
    0.0000    0.0000    0.0000 C   0  0  0  0  0  0  0  0  0  0  0  0
    0.0000    0.0000    0.0000 C   0  0  0  0  0  0  0  0  0  0  0  0
    0.0000    0.0000    0.0000 C   0  0  0  0  0  0  0  0  0  0  0  0
    0.0000    0.0000    0.0000 C   0  0  0  0  0  0  0  0  0  0  0  0
    0.0000    0.0000    0.0000 C   0  0  0  0  0  0  0  0  0  0  0  0
    0.0000    0.0000    0.0000 C   0  0  0  0  0  0  0  0  0  0  0  0
    0.0000    0.0000    0.0000 C   0  0  0  0  0  0  0  0  0  0  0  0
    0.0000    0.0000    0.0000 O   0  0  0  0  0  0  0  0  0  0  0  0
    0.0000    0.0000    0.0000 O   0  0  0  0  0  0  0  0  0  0  0  0
    0.0000    0.0000    0.0000 C   0  0  0  0  0  0  0  0  0  0  0  0
    0.0000    0.0000    0.0000 C   0  0  0  0  0  0  0  0  0  0  0  0
    0.0000    0.0000    0.0000 C   0  0  0  0  0  0  0  0  0  0  0  0
    0.0000    0.0000    0.0000 F   0  0  0  0  0  0  0  0  0  0  0  0
    0.0000    0.0000    0.0000 C   0  0  0  0  0  0  0  0  0  0  0  0
    0.0000    0.0000    0.0000 C   0  0  0  0  0  0  0  0  0  0  0  0
    0.0000    0.0000    0.0000 C   0  0  0  0  0  0  0  0  0  0  0  0
    0.0000    0.0000    0.0000 C   0  0  0  0  0  0  0  0  0  0  0  0
    0.0000    0.0000    0.0000 C   0  0  0  0  0  0  0  0  0  0  0  0
    0.0000    0.0000    0.0000 C   0  0  0  0  0  0  0  0  0  0  0  0
  1  2  1  0
  2  3  1  0
  3  4  2  0
  4  5  1  0
  5  6  2  0
  6  7  1  0
  7  8  2  0
  8  9  1  0
  9 10  2  0
 10 11  1  0
 11 12  1  0
 12 13  2  0
 12 14  1  0
 10 15  1  0
 15 16  2  0
 16 17  1  0
 17 18  1  0
 17 19  2  0
 19 20  1  0
 20 21  2  0
  9 22  1  0
  6 23  1  0
 23 24  2  0
 24  3  1  0
  8 21  1  0
 21 15  1  0
M  END
>  <pIC50>  (723) 
4.47

>  <ChEMBL_ID>  (723) 
CHEMBL18797

>  <document_journal>  (723) 
None

>  <bao_endpoint>  (723) 
BAO_0000190

>  <potential_duplicate>  (723) 
False

>  <uo_units>  (723) 
UO_0000065

>  <canonical_smiles>  (723) 
CSc1ccc(\C=C/2\C(=C(CC(=O)O)c3cc(F)ccc23)C)cc1

>  <parent_molecule_chembl_id>  (723) 
CHEMBL18797

>  <assay_type>  (723) 
B

>  <src_id>  (723) 
15

>  <ligand_efficiency>  (723) 
{u'le': u'0.25', u'bei': u'13.14', u'sei': u'7.15', u'lle': u'-0.28'}

>  <standard_flag>  (723) 
True

>  <molecule_chembl_id>  (723) 
CHEMBL18797

>  <target_organism>  (723) 
Homo sapiens

>  <standard_units>  (723) 
nM

>  <record_id>  (723) 
1540184

>  <document_chembl_id>  (723) 
CHEMBL1909046

>  <bao_format>  (723) 
BAO_0000249

>  <data_validity_description>  (723) 
None

>  <activity_id>  (723) 
7803760

>  <standard_type>  (723) 
IC50

>  <target_chembl_id>  (723) 
CHEMBL233

>  <data_validity_comment>  (723) 
None

>  <published_value>  (723) 
33.668

>  <document_year>  (723) 
None

>  <target_pref_name>  (723) 
Mu opioid receptor

>  <assay_chembl_id>  (723) 
CHEMBL1909182

>  <standard_relation>  (723) 
=

>  <assay_description>  (723) 
DRUGMATRIX: Opiate mu (OP3, MOP) radioligand binding (ligand: [3H] Diprenorphine)

>  <published_relation>  (723) 
=

>  <standard_value>  (723) 
33668

>  <qudt_units>  (723) 
http://www.openphacts.org/units/Nanomolar

>  <target_tax_id>  (723) 
9606

>  <bao_label>  (723) 
cell membrane format

>  <published_units>  (723) 
uM

>  <pchembl_value>  (723) 
4.47

>  <published_type>  (723) 
IC50

>  <activity_comment>  (723) 
None

$$$$

     RDKit          

 28 30  0  0  0  0  0  0  0  0999 V2000
    0.0000    0.0000    0.0000 C   0  0  0  0  0  0  0  0  0  0  0  0
    0.0000    0.0000    0.0000 C   0  0  0  0  0  0  0  0  0  0  0  0
    0.0000    0.0000    0.0000 C   0  0  0  0  0  0  0  0  0  0  0  0
    0.0000    0.0000    0.0000 C   0  0  0  0  0  0  0  0  0  0  0  0
    0.0000    0.0000    0.0000 C   0  0  0  0  0  0  0  0  0  0  0  0
    0.0000    0.0000    0.0000 C   0  0  0  0  0  0  0  0  0  0  0  0
    0.0000    0.0000    0.0000 C   0  0  0  0  0  0  0  0  0  0  0  0
    0.0000    0.0000    0.0000 C   0  0  0  0  0  0  0  0  0  0  0  0
    0.0000    0.0000    0.0000 C   0  0  0  0  0  0  0  0  0  0  0  0
    0.0000    0.0000    0.0000 C   0  0  0  0  0  0  0  0  0  0  0  0
    0.0000    0.0000    0.0000 C   0  0  0  0  0  0  0  0  0  0  0  0
    0.0000    0.0000    0.0000 C   0  0  0  0  0  0  0  0  0  0  0  0
    0.0000    0.0000    0.0000 C   0  0  0  0  0  0  0  0  0  0  0  0
    0.0000    0.0000    0.0000 C   0  0  0  0  0  0  0  0  0  0  0  0
    0.0000    0.0000    0.0000 O   0  0  0  0  0  0  0  0  0  0  0  0
    0.0000    0.0000    0.0000 C   0  0  0  0  0  0  0  0  0  0  0  0
    0.0000    0.0000    0.0000 C   0  0  0  0  0  0  0  0  0  0  0  0
    0.0000    0.0000    0.0000 N   0  0  0  0  0  0  0  0  0  0  0  0
    0.0000    0.0000    0.0000 C   0  0  0  0  0  0  0  0  0  0  0  0
    0.0000    0.0000    0.0000 C   0  0  0  0  0  0  0  0  0  0  0  0
    0.0000    0.0000    0.0000 C   0  0  0  0  0  0  0  0  0  0  0  0
    0.0000    0.0000    0.0000 C   0  0  0  0  0  0  0  0  0  0  0  0
    0.0000    0.0000    0.0000 C   0  0  0  0  0  0  0  0  0  0  0  0
    0.0000    0.0000    0.0000 C   0  0  0  0  0  0  0  0  0  0  0  0
    0.0000    0.0000    0.0000 C   0  0  0  0  0  0  0  0  0  0  0  0
    0.0000    0.0000    0.0000 C   0  0  0  0  0  0  0  0  0  0  0  0
    0.0000    0.0000    0.0000 C   0  0  0  0  0  0  0  0  0  0  0  0
    0.0000    0.0000    0.0000 C   0  0  0  0  0  0  0  0  0  0  0  0
  1  2  1  0
  2  3  1  0
  3  4  2  0
  4  5  1  0
  5  6  2  0
  6  7  1  0
  7  8  2  0
  8  9  1  0
  9 10  2  0
  4 11  1  0
 11 12  2  0
 12 13  1  0
 13 14  2  0
 14 15  1  0
 15 16  1  0
 16 17  1  0
 17 18  1  0
 18 19  1  0
 18 20  1  0
 14 21  1  0
 21 22  2  0
  3 23  1  0
 23 24  2  0
 24 25  1  0
 25 26  2  0
 26 27  1  0
 27 28  2  0
 10  5  1  0
 22 11  1  0
 28 23  1  0
M  END
>  <pIC50>  (724) 
4.76

>  <ChEMBL_ID>  (724) 
CHEMBL83

>  <document_journal>  (724) 
None

>  <bao_endpoint>  (724) 
BAO_0000190

>  <potential_duplicate>  (724) 
False

>  <uo_units>  (724) 
UO_0000065

>  <canonical_smiles>  (724) 
CC\C(=C(/c1ccccc1)\c2ccc(OCCN(C)C)cc2)\c3ccccc3

>  <parent_molecule_chembl_id>  (724) 
CHEMBL83

>  <assay_type>  (724) 
B

>  <src_id>  (724) 
15

>  <ligand_efficiency>  (724) 
{u'le': u'0.23', u'bei': u'12.8', u'sei': u'38.13', u'lle': u'-1.57'}

>  <standard_flag>  (724) 
True

>  <molecule_chembl_id>  (724) 
CHEMBL83

>  <target_organism>  (724) 
Homo sapiens

>  <standard_units>  (724) 
nM

>  <record_id>  (724) 
1540192

>  <document_chembl_id>  (724) 
CHEMBL1909046

>  <bao_format>  (724) 
BAO_0000249

>  <data_validity_description>  (724) 
None

>  <activity_id>  (724) 
7803830

>  <standard_type>  (724) 
IC50

>  <target_chembl_id>  (724) 
CHEMBL233

>  <data_validity_comment>  (724) 
None

>  <published_value>  (724) 
17.594

>  <document_year>  (724) 
None

>  <target_pref_name>  (724) 
Mu opioid receptor

>  <assay_chembl_id>  (724) 
CHEMBL1909182

>  <standard_relation>  (724) 
=

>  <assay_description>  (724) 
DRUGMATRIX: Opiate mu (OP3, MOP) radioligand binding (ligand: [3H] Diprenorphine)

>  <published_relation>  (724) 
=

>  <standard_value>  (724) 
17594

>  <qudt_units>  (724) 
http://www.openphacts.org/units/Nanomolar

>  <target_tax_id>  (724) 
9606

>  <bao_label>  (724) 
cell membrane format

>  <published_units>  (724) 
uM

>  <pchembl_value>  (724) 
4.76

>  <published_type>  (724) 
IC50

>  <activity_comment>  (724) 
None

$$$$

     RDKit          

 50 53  0  0  0  0  0  0  0  0999 V2000
    0.0000    0.0000    0.0000 C   0  0  0  0  0  0  0  0  0  0  0  0
    0.0000    0.0000    0.0000 C   0  0  0  0  0  0  0  0  0  0  0  0
    0.0000    0.0000    0.0000 C   0  0  0  0  0  0  0  0  0  0  0  0
    0.0000    0.0000    0.0000 C   0  0  0  0  0  0  0  0  0  0  0  0
    0.0000    0.0000    0.0000 N   0  0  0  0  0  0  0  0  0  0  0  0
    0.0000    0.0000    0.0000 C   0  0  0  0  0  0  0  0  0  0  0  0
    0.0000    0.0000    0.0000 O   0  0  0  0  0  0  0  0  0  0  0  0
    0.0000    0.0000    0.0000 N   0  0  0  0  0  0  0  0  0  0  0  0
    0.0000    0.0000    0.0000 C   0  0  0  0  0  0  0  0  0  0  0  0
    0.0000    0.0000    0.0000 C   0  0  0  0  0  0  0  0  0  0  0  0
    0.0000    0.0000    0.0000 C   0  0  0  0  0  0  0  0  0  0  0  0
    0.0000    0.0000    0.0000 C   0  0  0  0  0  0  0  0  0  0  0  0
    0.0000    0.0000    0.0000 S   0  0  0  0  0  0  0  0  0  0  0  0
    0.0000    0.0000    0.0000 C   0  0  0  0  0  0  0  0  0  0  0  0
    0.0000    0.0000    0.0000 N   0  0  0  0  0  0  0  0  0  0  0  0
    0.0000    0.0000    0.0000 C   0  0  0  0  0  0  0  0  0  0  0  0
    0.0000    0.0000    0.0000 C   0  0  0  0  0  0  0  0  0  0  0  0
    0.0000    0.0000    0.0000 C   0  0  0  0  0  0  0  0  0  0  0  0
    0.0000    0.0000    0.0000 C   0  0  0  0  0  0  0  0  0  0  0  0
    0.0000    0.0000    0.0000 O   0  0  0  0  0  0  0  0  0  0  0  0
    0.0000    0.0000    0.0000 N   0  0  0  0  0  0  0  0  0  0  0  0
    0.0000    0.0000    0.0000 C   0  0  0  0  0  0  0  0  0  0  0  0
    0.0000    0.0000    0.0000 C   0  0  0  0  0  0  0  0  0  0  0  0
    0.0000    0.0000    0.0000 C   0  0  0  0  0  0  0  0  0  0  0  0
    0.0000    0.0000    0.0000 O   0  0  0  0  0  0  0  0  0  0  0  0
    0.0000    0.0000    0.0000 C   0  0  0  0  0  0  0  0  0  0  0  0
    0.0000    0.0000    0.0000 C   0  0  0  0  0  0  0  0  0  0  0  0
    0.0000    0.0000    0.0000 C   0  0  0  0  0  0  0  0  0  0  0  0
    0.0000    0.0000    0.0000 C   0  0  0  0  0  0  0  0  0  0  0  0
    0.0000    0.0000    0.0000 C   0  0  0  0  0  0  0  0  0  0  0  0
    0.0000    0.0000    0.0000 C   0  0  0  0  0  0  0  0  0  0  0  0
    0.0000    0.0000    0.0000 C   0  0  0  0  0  0  0  0  0  0  0  0
    0.0000    0.0000    0.0000 C   0  0  0  0  0  0  0  0  0  0  0  0
    0.0000    0.0000    0.0000 N   0  0  0  0  0  0  0  0  0  0  0  0
    0.0000    0.0000    0.0000 C   0  0  0  0  0  0  0  0  0  0  0  0
    0.0000    0.0000    0.0000 O   0  0  0  0  0  0  0  0  0  0  0  0
    0.0000    0.0000    0.0000 O   0  0  0  0  0  0  0  0  0  0  0  0
    0.0000    0.0000    0.0000 C   0  0  0  0  0  0  0  0  0  0  0  0
    0.0000    0.0000    0.0000 C   0  0  0  0  0  0  0  0  0  0  0  0
    0.0000    0.0000    0.0000 C   0  0  0  0  0  0  0  0  0  0  0  0
    0.0000    0.0000    0.0000 N   0  0  0  0  0  0  0  0  0  0  0  0
    0.0000    0.0000    0.0000 C   0  0  0  0  0  0  0  0  0  0  0  0
    0.0000    0.0000    0.0000 S   0  0  0  0  0  0  0  0  0  0  0  0
    0.0000    0.0000    0.0000 C   0  0  0  0  0  0  0  0  0  0  0  0
    0.0000    0.0000    0.0000 C   0  0  0  0  0  0  0  0  0  0  0  0
    0.0000    0.0000    0.0000 C   0  0  0  0  0  0  0  0  0  0  0  0
    0.0000    0.0000    0.0000 C   0  0  0  0  0  0  0  0  0  0  0  0
    0.0000    0.0000    0.0000 C   0  0  0  0  0  0  0  0  0  0  0  0
    0.0000    0.0000    0.0000 C   0  0  0  0  0  0  0  0  0  0  0  0
    0.0000    0.0000    0.0000 C   0  0  0  0  0  0  0  0  0  0  0  0
  1  2  1  0
  2  3  1  0
  2  4  1  0
  4  5  1  0
  5  6  1  0
  6  7  2  0
  6  8  1  0
  8  9  1  0
  8 10  1  0
 10 11  1  0
 11 12  2  0
 12 13  1  0
 13 14  1  0
 14 15  2  0
 14 16  1  0
 16 17  1  0
 16 18  1  0
  4 19  1  0
 19 20  2  0
 19 21  1  0
 21 22  1  0
 22 23  1  0
 23 24  1  0
 24 25  1  0
 24 26  1  0
 26 27  1  0
 27 28  1  0
 28 29  2  0
 29 30  1  0
 30 31  2  0
 31 32  1  0
 32 33  2  0
 26 34  1  0
 34 35  1  0
 35 36  2  0
 35 37  1  0
 37 38  1  0
 38 39  1  0
 39 40  2  0
 40 41  1  0
 41 42  2  0
 42 43  1  0
 22 44  1  0
 44 45  1  0
 45 46  2  0
 46 47  1  0
 47 48  2  0
 48 49  1  0
 49 50  2  0
 15 11  1  0
 33 28  1  0
 43 39  1  0
 50 45  1  0
M  END
>  <pIC50>  (725) 
4.18

>  <ChEMBL_ID>  (725) 
CHEMBL163

>  <document_journal>  (725) 
None

>  <bao_endpoint>  (725) 
BAO_0000190

>  <potential_duplicate>  (725) 
False

>  <uo_units>  (725) 
UO_0000065

>  <canonical_smiles>  (725) 
CC(C)[C@H](NC(=O)N(C)Cc1csc(n1)C(C)C)C(=O)N[C@H](C[C@H](O)[C@H](Cc2ccccc2)NC(=O)OCc3cncs3)Cc4ccccc4

>  <parent_molecule_chembl_id>  (725) 
CHEMBL163

>  <assay_type>  (725) 
B

>  <src_id>  (725) 
15

>  <ligand_efficiency>  (725) 
{u'le': u'0.11', u'bei': u'5.8', u'sei': u'2.07', u'lle': u'-0.8'}

>  <standard_flag>  (725) 
True

>  <molecule_chembl_id>  (725) 
CHEMBL163

>  <target_organism>  (725) 
Homo sapiens

>  <standard_units>  (725) 
nM

>  <record_id>  (725) 
1540121

>  <document_chembl_id>  (725) 
CHEMBL1909046

>  <bao_format>  (725) 
BAO_0000249

>  <data_validity_description>  (725) 
None

>  <activity_id>  (725) 
7811234

>  <standard_type>  (725) 
IC50

>  <target_chembl_id>  (725) 
CHEMBL233

>  <data_validity_comment>  (725) 
None

>  <published_value>  (725) 
65.542

>  <document_year>  (725) 
None

>  <target_pref_name>  (725) 
Mu opioid receptor

>  <assay_chembl_id>  (725) 
CHEMBL1909182

>  <standard_relation>  (725) 
=

>  <assay_description>  (725) 
DRUGMATRIX: Opiate mu (OP3, MOP) radioligand binding (ligand: [3H] Diprenorphine)

>  <published_relation>  (725) 
=

>  <standard_value>  (725) 
65542

>  <qudt_units>  (725) 
http://www.openphacts.org/units/Nanomolar

>  <target_tax_id>  (725) 
9606

>  <bao_label>  (725) 
cell membrane format

>  <published_units>  (725) 
uM

>  <pchembl_value>  (725) 
4.18

>  <published_type>  (725) 
IC50

>  <activity_comment>  (725) 
None

$$$$

     RDKit          

 49 53  0  0  0  0  0  0  0  0999 V2000
    0.0000    0.0000    0.0000 C   0  0  0  0  0  0  0  0  0  0  0  0
    0.0000    0.0000    0.0000 C   0  0  0  0  0  0  0  0  0  0  0  0
    0.0000    0.0000    0.0000 C   0  0  0  0  0  0  0  0  0  0  0  0
    0.0000    0.0000    0.0000 C   0  0  0  0  0  0  0  0  0  0  0  0
    0.0000    0.0000    0.0000 N   0  0  0  0  0  0  0  0  0  0  0  0
    0.0000    0.0000    0.0000 C   0  0  0  0  0  0  0  0  0  0  0  0
    0.0000    0.0000    0.0000 O   0  0  0  0  0  0  0  0  0  0  0  0
    0.0000    0.0000    0.0000 C   0  0  0  0  0  0  0  0  0  0  0  0
    0.0000    0.0000    0.0000 C   0  0  0  0  0  0  0  0  0  0  0  0
    0.0000    0.0000    0.0000 C   0  0  0  0  0  0  0  0  0  0  0  0
    0.0000    0.0000    0.0000 C   0  0  0  0  0  0  0  0  0  0  0  0
    0.0000    0.0000    0.0000 C   0  0  0  0  0  0  0  0  0  0  0  0
    0.0000    0.0000    0.0000 C   0  0  0  0  0  0  0  0  0  0  0  0
    0.0000    0.0000    0.0000 C   0  0  0  0  0  0  0  0  0  0  0  0
    0.0000    0.0000    0.0000 C   0  0  0  0  0  0  0  0  0  0  0  0
    0.0000    0.0000    0.0000 C   0  0  0  0  0  0  0  0  0  0  0  0
    0.0000    0.0000    0.0000 N   0  0  0  0  0  0  0  0  0  0  0  0
    0.0000    0.0000    0.0000 C   0  0  0  0  0  0  0  0  0  0  0  0
    0.0000    0.0000    0.0000 C   0  0  0  0  0  0  0  0  0  0  0  0
    0.0000    0.0000    0.0000 O   0  0  0  0  0  0  0  0  0  0  0  0
    0.0000    0.0000    0.0000 C   0  0  0  0  0  0  0  0  0  0  0  0
    0.0000    0.0000    0.0000 C   0  0  0  0  0  0  0  0  0  0  0  0
    0.0000    0.0000    0.0000 C   0  0  0  0  0  0  0  0  0  0  0  0
    0.0000    0.0000    0.0000 C   0  0  0  0  0  0  0  0  0  0  0  0
    0.0000    0.0000    0.0000 C   0  0  0  0  0  0  0  0  0  0  0  0
    0.0000    0.0000    0.0000 C   0  0  0  0  0  0  0  0  0  0  0  0
    0.0000    0.0000    0.0000 C   0  0  0  0  0  0  0  0  0  0  0  0
    0.0000    0.0000    0.0000 C   0  0  0  0  0  0  0  0  0  0  0  0
    0.0000    0.0000    0.0000 N   0  0  0  0  0  0  0  0  0  0  0  0
    0.0000    0.0000    0.0000 C   0  0  0  0  0  0  0  0  0  0  0  0
    0.0000    0.0000    0.0000 O   0  0  0  0  0  0  0  0  0  0  0  0
    0.0000    0.0000    0.0000 C   0  0  0  0  0  0  0  0  0  0  0  0
    0.0000    0.0000    0.0000 C   0  0  0  0  0  0  0  0  0  0  0  0
    0.0000    0.0000    0.0000 C   0  0  0  0  0  0  0  0  0  0  0  0
    0.0000    0.0000    0.0000 O   0  0  0  0  0  0  0  0  0  0  0  0
    0.0000    0.0000    0.0000 N   0  0  0  0  0  0  0  0  0  0  0  0
    0.0000    0.0000    0.0000 N   0  0  0  0  0  0  0  0  0  0  0  0
    0.0000    0.0000    0.0000 C   0  0  0  0  0  0  0  0  0  0  0  0
    0.0000    0.0000    0.0000 O   0  0  0  0  0  0  0  0  0  0  0  0
    0.0000    0.0000    0.0000 C   0  0  0  0  0  0  0  0  0  0  0  0
    0.0000    0.0000    0.0000 C   0  0  0  0  0  0  0  0  0  0  0  0
    0.0000    0.0000    0.0000 C   0  0  0  0  0  0  0  0  0  0  0  0
    0.0000    0.0000    0.0000 C   0  0  0  0  0  0  0  0  0  0  0  0
    0.0000    0.0000    0.0000 C   0  0  0  0  0  0  0  0  0  0  0  0
    0.0000    0.0000    0.0000 C   0  0  0  0  0  0  0  0  0  0  0  0
    0.0000    0.0000    0.0000 C   0  0  0  0  0  0  0  0  0  0  0  0
    0.0000    0.0000    0.0000 C   0  0  0  0  0  0  0  0  0  0  0  0
    0.0000    0.0000    0.0000 C   0  0  0  0  0  0  0  0  0  0  0  0
    0.0000    0.0000    0.0000 N   0  0  0  0  0  0  0  0  0  0  0  0
  1  2  1  0
  2  3  1  0
  2  4  1  0
  2  5  1  0
  5  6  1  0
  6  7  2  0
  6  8  1  0
  8  9  1  0
  9 10  1  0
 10 11  1  0
 11 12  1  0
 12 13  1  0
 13 14  1  0
 14 15  1  0
 15 16  1  0
 16 17  1  0
 17 18  1  0
 18 19  1  0
 19 20  1  0
 19 21  1  0
 21 22  1  0
 22 23  1  0
 23 24  2  0
 24 25  1  0
 25 26  2  0
 26 27  1  0
 27 28  2  0
 21 29  1  0
 29 30  1  0
 30 31  2  0
 30 32  1  0
 32 33  1  0
 33 34  1  0
 34 35  2  0
 34 36  1  0
 32 37  1  0
 37 38  1  0
 38 39  2  0
 38 40  1  0
 40 41  2  0
 41 42  1  0
 42 43  2  0
 43 44  1  0
 44 45  2  0
 45 46  1  0
 46 47  2  0
 47 48  1  0
 48 49  2  0
 17  8  1  0
 15 10  1  0
 28 23  1  0
 49 40  1  0
 48 43  1  0
M  END
>  <pIC50>  (726) 
5.02

>  <ChEMBL_ID>  (726) 
CHEMBL114

>  <document_journal>  (726) 
None

>  <bao_endpoint>  (726) 
BAO_0000190

>  <potential_duplicate>  (726) 
False

>  <uo_units>  (726) 
UO_0000065

>  <canonical_smiles>  (726) 
CC(C)(C)NC(=O)[C@@H]1C[C@@H]2CCCC[C@@H]2CN1C[C@@H](O)[C@H](Cc3ccccc3)NC(=O)[C@H](CC(=O)N)NC(=O)c4ccc5ccccc5n4

>  <parent_molecule_chembl_id>  (726) 
CHEMBL114

>  <assay_type>  (726) 
B

>  <src_id>  (726) 
15

>  <ligand_efficiency>  (726) 
{u'le': u'0.14', u'bei': u'7.48', u'sei': u'3.01', u'lle': u'1.35'}

>  <standard_flag>  (726) 
True

>  <molecule_chembl_id>  (726) 
CHEMBL114

>  <target_organism>  (726) 
Homo sapiens

>  <standard_units>  (726) 
nM

>  <record_id>  (726) 
1540138

>  <document_chembl_id>  (726) 
CHEMBL1909046

>  <bao_format>  (726) 
BAO_0000249

>  <data_validity_description>  (726) 
None

>  <activity_id>  (726) 
7815777

>  <standard_type>  (726) 
IC50

>  <target_chembl_id>  (726) 
CHEMBL233

>  <data_validity_comment>  (726) 
None

>  <published_value>  (726) 
9.625

>  <document_year>  (726) 
None

>  <target_pref_name>  (726) 
Mu opioid receptor

>  <assay_chembl_id>  (726) 
CHEMBL1909182

>  <standard_relation>  (726) 
=

>  <assay_description>  (726) 
DRUGMATRIX: Opiate mu (OP3, MOP) radioligand binding (ligand: [3H] Diprenorphine)

>  <published_relation>  (726) 
=

>  <standard_value>  (726) 
9625

>  <qudt_units>  (726) 
http://www.openphacts.org/units/Nanomolar

>  <target_tax_id>  (726) 
9606

>  <bao_label>  (726) 
cell membrane format

>  <published_units>  (726) 
uM

>  <pchembl_value>  (726) 
5.02

>  <published_type>  (726) 
IC50

>  <activity_comment>  (726) 
None

$$$$

     RDKit          

 34 38  0  0  0  0  0  0  0  0999 V2000
    0.0000    0.0000    0.0000 O   0  0  0  0  0  0  0  0  0  0  0  0
    0.0000    0.0000    0.0000 C   0  0  0  0  0  0  0  0  0  0  0  0
    0.0000    0.0000    0.0000 C   0  0  0  0  0  0  0  0  0  0  0  0
    0.0000    0.0000    0.0000 C   0  0  0  0  0  0  0  0  0  0  0  0
    0.0000    0.0000    0.0000 C   0  0  0  0  0  0  0  0  0  0  0  0
    0.0000    0.0000    0.0000 C   0  0  0  0  0  0  0  0  0  0  0  0
    0.0000    0.0000    0.0000 C   0  0  0  0  0  0  0  0  0  0  0  0
    0.0000    0.0000    0.0000 C   0  0  0  0  0  0  0  0  0  0  0  0
    0.0000    0.0000    0.0000 S   0  0  0  0  0  0  0  0  0  0  0  0
    0.0000    0.0000    0.0000 C   0  0  0  0  0  0  0  0  0  0  0  0
    0.0000    0.0000    0.0000 C   0  0  0  0  0  0  0  0  0  0  0  0
    0.0000    0.0000    0.0000 C   0  0  0  0  0  0  0  0  0  0  0  0
    0.0000    0.0000    0.0000 O   0  0  0  0  0  0  0  0  0  0  0  0
    0.0000    0.0000    0.0000 C   0  0  0  0  0  0  0  0  0  0  0  0
    0.0000    0.0000    0.0000 C   0  0  0  0  0  0  0  0  0  0  0  0
    0.0000    0.0000    0.0000 C   0  0  0  0  0  0  0  0  0  0  0  0
    0.0000    0.0000    0.0000 C   0  0  0  0  0  0  0  0  0  0  0  0
    0.0000    0.0000    0.0000 C   0  0  0  0  0  0  0  0  0  0  0  0
    0.0000    0.0000    0.0000 O   0  0  0  0  0  0  0  0  0  0  0  0
    0.0000    0.0000    0.0000 C   0  0  0  0  0  0  0  0  0  0  0  0
    0.0000    0.0000    0.0000 C   0  0  0  0  0  0  0  0  0  0  0  0
    0.0000    0.0000    0.0000 C   0  0  0  0  0  0  0  0  0  0  0  0
    0.0000    0.0000    0.0000 C   0  0  0  0  0  0  0  0  0  0  0  0
    0.0000    0.0000    0.0000 O   0  0  0  0  0  0  0  0  0  0  0  0
    0.0000    0.0000    0.0000 C   0  0  0  0  0  0  0  0  0  0  0  0
    0.0000    0.0000    0.0000 C   0  0  0  0  0  0  0  0  0  0  0  0
    0.0000    0.0000    0.0000 N   0  0  0  0  0  0  0  0  0  0  0  0
    0.0000    0.0000    0.0000 C   0  0  0  0  0  0  0  0  0  0  0  0
    0.0000    0.0000    0.0000 C   0  0  0  0  0  0  0  0  0  0  0  0
    0.0000    0.0000    0.0000 C   0  0  0  0  0  0  0  0  0  0  0  0
    0.0000    0.0000    0.0000 C   0  0  0  0  0  0  0  0  0  0  0  0
    0.0000    0.0000    0.0000 C   0  0  0  0  0  0  0  0  0  0  0  0
    0.0000    0.0000    0.0000 C   0  0  0  0  0  0  0  0  0  0  0  0
    0.0000    0.0000    0.0000 C   0  0  0  0  0  0  0  0  0  0  0  0
  1  2  1  0
  2  3  2  0
  3  4  1  0
  4  5  2  0
  5  6  1  0
  6  7  2  0
  5  8  1  0
  8  9  1  0
  9 10  1  0
 10 11  2  0
 11 12  1  0
 12 13  1  0
 12 14  2  0
 14 15  1  0
 15 16  2  0
 16 17  1  0
 17 18  1  0
 18 19  2  0
 18 20  1  0
 20 21  2  0
 21 22  1  0
 22 23  2  0
 23 24  1  0
 24 25  1  0
 25 26  1  0
 26 27  1  0
 27 28  1  0
 28 29  1  0
 29 30  1  0
 30 31  1  0
 31 32  1  0
 23 33  1  0
 33 34  2  0
  7  2  1  0
 17  8  2  0
 16 10  1  0
 34 20  1  0
 32 27  1  0
M  END
>  <pIC50>  (727) 
5.93

>  <ChEMBL_ID>  (727) 
CHEMBL81

>  <document_journal>  (727) 
None

>  <bao_endpoint>  (727) 
BAO_0000190

>  <potential_duplicate>  (727) 
False

>  <uo_units>  (727) 
UO_0000065

>  <canonical_smiles>  (727) 
Oc1ccc(cc1)c2sc3cc(O)ccc3c2C(=O)c4ccc(OCCN5CCCCC5)cc4

>  <parent_molecule_chembl_id>  (727) 
CHEMBL81

>  <assay_type>  (727) 
B

>  <src_id>  (727) 
15

>  <ligand_efficiency>  (727) 
{u'le': u'0.24', u'bei': u'12.52', u'sei': u'6.04', u'lle': u'-0.53'}

>  <standard_flag>  (727) 
True

>  <molecule_chembl_id>  (727) 
CHEMBL81

>  <target_organism>  (727) 
Homo sapiens

>  <standard_units>  (727) 
nM

>  <record_id>  (727) 
1540107

>  <document_chembl_id>  (727) 
CHEMBL1909046

>  <bao_format>  (727) 
BAO_0000249

>  <data_validity_description>  (727) 
None

>  <activity_id>  (727) 
7819592

>  <standard_type>  (727) 
IC50

>  <target_chembl_id>  (727) 
CHEMBL233

>  <data_validity_comment>  (727) 
None

>  <published_value>  (727) 
1.176

>  <document_year>  (727) 
None

>  <target_pref_name>  (727) 
Mu opioid receptor

>  <assay_chembl_id>  (727) 
CHEMBL1909182

>  <standard_relation>  (727) 
=

>  <assay_description>  (727) 
DRUGMATRIX: Opiate mu (OP3, MOP) radioligand binding (ligand: [3H] Diprenorphine)

>  <published_relation>  (727) 
=

>  <standard_value>  (727) 
1176

>  <qudt_units>  (727) 
http://www.openphacts.org/units/Nanomolar

>  <target_tax_id>  (727) 
9606

>  <bao_label>  (727) 
cell membrane format

>  <published_units>  (727) 
uM

>  <pchembl_value>  (727) 
5.93

>  <published_type>  (727) 
IC50

>  <activity_comment>  (727) 
None

$$$$

     RDKit          

 28 31  0  0  0  0  0  0  0  0999 V2000
    0.0000    0.0000    0.0000 C   0  0  0  0  0  0  0  0  0  0  0  0
    0.0000    0.0000    0.0000 N   0  0  0  0  0  0  0  0  0  0  0  0
    0.0000    0.0000    0.0000 C   0  0  0  0  0  0  0  0  0  0  0  0
    0.0000    0.0000    0.0000 C   0  0  0  0  0  0  0  0  0  0  0  0
    0.0000    0.0000    0.0000 C   0  0  0  0  0  0  0  0  0  0  0  0
    0.0000    0.0000    0.0000 C   0  0  0  0  0  0  0  0  0  0  0  0
    0.0000    0.0000    0.0000 C   0  0  0  0  0  0  0  0  0  0  0  0
    0.0000    0.0000    0.0000 C   0  0  0  0  0  0  0  0  0  0  0  0
    0.0000    0.0000    0.0000 C   0  0  0  0  0  0  0  0  0  0  0  0
    0.0000    0.0000    0.0000 O   0  0  0  0  0  0  0  0  0  0  0  0
    0.0000    0.0000    0.0000 C   0  0  0  0  0  0  0  0  0  0  0  0
    0.0000    0.0000    0.0000 C   0  0  0  0  0  0  0  0  0  0  0  0
    0.0000    0.0000    0.0000 N   0  0  0  0  0  0  0  0  0  0  0  0
    0.0000    0.0000    0.0000 C   0  0  0  0  0  0  0  0  0  0  0  0
    0.0000    0.0000    0.0000 C   0  0  0  0  0  0  0  0  0  0  0  0
    0.0000    0.0000    0.0000 C   0  0  0  0  0  0  0  0  0  0  0  0
    0.0000    0.0000    0.0000 C   0  0  0  0  0  0  0  0  0  0  0  0
    0.0000    0.0000    0.0000 C   0  0  0  0  0  0  0  0  0  0  0  0
    0.0000    0.0000    0.0000 O   0  0  0  0  0  0  0  0  0  0  0  0
    0.0000    0.0000    0.0000 C   0  0  0  0  0  0  0  0  0  0  0  0
    0.0000    0.0000    0.0000 C   0  0  0  0  0  0  0  0  0  0  0  0
    0.0000    0.0000    0.0000 C   0  0  0  0  0  0  0  0  0  0  0  0
    0.0000    0.0000    0.0000 C   0  0  0  0  0  0  0  0  0  0  0  0
    0.0000    0.0000    0.0000 C   0  0  0  0  0  0  0  0  0  0  0  0
    0.0000    0.0000    0.0000 Cl  0  0  0  0  0  0  0  0  0  0  0  0
    0.0000    0.0000    0.0000 C   0  0  0  0  0  0  0  0  0  0  0  0
    0.0000    0.0000    0.0000 Cl  0  0  0  0  0  0  0  0  0  0  0  0
    0.0000    0.0000    0.0000 C   0  0  0  0  0  0  0  0  0  0  0  0
  1  2  1  0
  2  3  1  0
  3  4  1  0
  4  5  1  0
  5  6  1  0
  6  7  1  0
  7  8  1  0
  8  9  1  0
  9 10  1  0
  6 11  1  0
 11 12  1  0
 12 13  1  0
 13 14  1  0
 14 15  1  0
 15 16  1  0
 16 17  1  0
  2 18  1  0
 18 19  2  0
 18 20  1  0
 20 21  1  0
 21 22  2  0
 22 23  1  0
 23 24  2  0
 24 25  1  0
 24 26  1  0
 26 27  1  0
 26 28  2  0
 12  3  1  0
 10  6  1  0
 17 13  1  0
 28 21  1  0
M  END
>  <pIC50>  (728) 
6.63

>  <ChEMBL_ID>  (728) 
CHEMBL70586

>  <document_journal>  (728) 
None

>  <bao_endpoint>  (728) 
BAO_0000190

>  <potential_duplicate>  (728) 
False

>  <uo_units>  (728) 
UO_0000065

>  <canonical_smiles>  (728) 
CN([C@H]1CC[C@@]2(CCCO2)C[C@@H]1N3CCCC3)C(=O)Cc4ccc(Cl)c(Cl)c4

>  <parent_molecule_chembl_id>  (728) 
CHEMBL70586

>  <assay_type>  (728) 
B

>  <src_id>  (728) 
15

>  <ligand_efficiency>  (728) 
{u'le': u'0.32', u'bei': u'15.59', u'sei': u'20.23', u'lle': u'2.63'}

>  <standard_flag>  (728) 
True

>  <molecule_chembl_id>  (728) 
CHEMBL70586

>  <target_organism>  (728) 
Homo sapiens

>  <standard_units>  (728) 
nM

>  <record_id>  (728) 
1540157

>  <document_chembl_id>  (728) 
CHEMBL1909046

>  <bao_format>  (728) 
BAO_0000249

>  <data_validity_description>  (728) 
None

>  <activity_id>  (728) 
7826768

>  <standard_type>  (728) 
IC50

>  <target_chembl_id>  (728) 
CHEMBL233

>  <data_validity_comment>  (728) 
None

>  <published_value>  (728) 
0.234

>  <document_year>  (728) 
None

>  <target_pref_name>  (728) 
Mu opioid receptor

>  <assay_chembl_id>  (728) 
CHEMBL1909182

>  <standard_relation>  (728) 
=

>  <assay_description>  (728) 
DRUGMATRIX: Opiate mu (OP3, MOP) radioligand binding (ligand: [3H] Diprenorphine)

>  <published_relation>  (728) 
=

>  <standard_value>  (728) 
234

>  <qudt_units>  (728) 
http://www.openphacts.org/units/Nanomolar

>  <target_tax_id>  (728) 
9606

>  <bao_label>  (728) 
cell membrane format

>  <published_units>  (728) 
uM

>  <pchembl_value>  (728) 
6.63

>  <published_type>  (728) 
IC50

>  <activity_comment>  (728) 
None

$$$$

     RDKit          

 35 38  0  0  0  0  0  0  0  0999 V2000
    0.0000    0.0000    0.0000 C   0  0  0  0  0  0  0  0  0  0  0  0
    0.0000    0.0000    0.0000 C   0  0  0  0  0  0  0  0  0  0  0  0
    0.0000    0.0000    0.0000 N   0  0  0  0  0  0  0  0  0  0  0  0
    0.0000    0.0000    0.0000 C   0  0  0  0  0  0  0  0  0  0  0  0
    0.0000    0.0000    0.0000 C   0  0  0  0  0  0  0  0  0  0  0  0
    0.0000    0.0000    0.0000 C   0  0  0  0  0  0  0  0  0  0  0  0
    0.0000    0.0000    0.0000 O   0  0  0  0  0  0  0  0  0  0  0  0
    0.0000    0.0000    0.0000 C   0  0  0  0  0  0  0  0  0  0  0  0
    0.0000    0.0000    0.0000 C   0  0  0  0  0  0  0  0  0  0  0  0
    0.0000    0.0000    0.0000 C   0  0  0  0  0  0  0  0  0  0  0  0
    0.0000    0.0000    0.0000 C   0  0  0  0  0  0  0  0  0  0  0  0
    0.0000    0.0000    0.0000 C   0  0  0  0  0  0  0  0  0  0  0  0
    0.0000    0.0000    0.0000 C   0  0  0  0  0  0  0  0  0  0  0  0
    0.0000    0.0000    0.0000 C   0  0  0  0  0  0  0  0  0  0  0  0
    0.0000    0.0000    0.0000 C   0  0  0  0  0  0  0  0  0  0  0  0
    0.0000    0.0000    0.0000 C   0  0  0  0  0  0  0  0  0  0  0  0
    0.0000    0.0000    0.0000 C   0  0  0  0  0  0  0  0  0  0  0  0
    0.0000    0.0000    0.0000 N   0  0  0  0  0  0  0  0  0  0  0  0
    0.0000    0.0000    0.0000 C   0  0  0  0  0  0  0  0  0  0  0  0
    0.0000    0.0000    0.0000 C   0  0  0  0  0  0  0  0  0  0  0  0
    0.0000    0.0000    0.0000 C   0  0  0  0  0  0  0  0  0  0  0  0
    0.0000    0.0000    0.0000 C   0  0  0  0  0  0  0  0  0  0  0  0
    0.0000    0.0000    0.0000 C   0  0  0  0  0  0  0  0  0  0  0  0
    0.0000    0.0000    0.0000 F   0  0  0  0  0  0  0  0  0  0  0  0
    0.0000    0.0000    0.0000 C   0  0  0  0  0  0  0  0  0  0  0  0
    0.0000    0.0000    0.0000 C   0  0  0  0  0  0  0  0  0  0  0  0
    0.0000    0.0000    0.0000 C   0  0  0  0  0  0  0  0  0  0  0  0
    0.0000    0.0000    0.0000 C   0  0  0  0  0  0  0  0  0  0  0  0
    0.0000    0.0000    0.0000 C   0  0  0  0  0  0  0  0  0  0  0  0
    0.0000    0.0000    0.0000 C   0  0  0  0  0  0  0  0  0  0  0  0
    0.0000    0.0000    0.0000 C   0  0  0  0  0  0  0  0  0  0  0  0
    0.0000    0.0000    0.0000 C   0  0  0  0  0  0  0  0  0  0  0  0
    0.0000    0.0000    0.0000 C   0  0  0  0  0  0  0  0  0  0  0  0
    0.0000    0.0000    0.0000 F   0  0  0  0  0  0  0  0  0  0  0  0
    0.0000    0.0000    0.0000 C   0  0  0  0  0  0  0  0  0  0  0  0
  1  2  1  0
  2  3  1  0
  3  4  1  0
  4  5  1  0
  3  6  1  0
  6  7  2  0
  6  8  1  0
  8  9  2  0
  9 10  1  0
 10 11  2  0
 11 12  1  0
 12 13  2  0
 11 14  1  0
 14 15  2  3
 15 16  1  0
 16 17  1  0
 17 18  1  0
 18 19  1  0
 19 20  1  0
 20 21  2  0
 21 22  1  0
 22 23  2  0
 23 24  1  0
 23 25  1  0
 25 26  2  0
 18 27  1  0
 27 28  1  0
 14 29  1  0
 29 30  2  0
 30 31  1  0
 31 32  2  0
 32 33  1  0
 33 34  1  0
 33 35  2  0
 13  8  1  0
 28 15  1  0
 26 20  1  0
 35 29  1  0
M  END
>  <pIC50>  (729) 
5.63

>  <ChEMBL_ID>  (729) 
CHEMBL1946015

>  <document_journal>  (729) 
Bioorg. Med. Chem. Lett.

>  <bao_endpoint>  (729) 
BAO_0000190

>  <potential_duplicate>  (729) 
False

>  <uo_units>  (729) 
UO_0000065

>  <canonical_smiles>  (729) 
CCN(CC)C(=O)c1ccc(cc1)C(=C2CCN(Cc3ccc(F)cc3)CC2)c4cccc(F)c4

>  <parent_molecule_chembl_id>  (729) 
CHEMBL1946015

>  <assay_type>  (729) 
B

>  <src_id>  (729) 
1

>  <ligand_efficiency>  (729) 
{u'le': u'0.22', u'bei': u'11.87', u'sei': u'23.92', u'lle': u'-0.68'}

>  <standard_flag>  (729) 
True

>  <molecule_chembl_id>  (729) 
CHEMBL1946015

>  <target_organism>  (729) 
Homo sapiens

>  <standard_units>  (729) 
nM

>  <record_id>  (729) 
1575201

>  <document_chembl_id>  (729) 
CHEMBL1944587

>  <bao_format>  (729) 
BAO_0000219

>  <data_validity_description>  (729) 
None

>  <activity_id>  (729) 
8021421

>  <standard_type>  (729) 
IC50

>  <target_chembl_id>  (729) 
CHEMBL233

>  <data_validity_comment>  (729) 
None

>  <published_value>  (729) 
2330

>  <document_year>  (729) 
2012

>  <target_pref_name>  (729) 
Mu opioid receptor

>  <assay_chembl_id>  (729) 
CHEMBL1947874

>  <standard_relation>  (729) 
=

>  <assay_description>  (729) 
Displacement of radiolabeled FK33-824 from mu opioid receptor expressed in HEK293 cell membranes

>  <published_relation>  (729) 
=

>  <standard_value>  (729) 
2330

>  <qudt_units>  (729) 
http://www.openphacts.org/units/Nanomolar

>  <target_tax_id>  (729) 
9606

>  <bao_label>  (729) 
cell-based format

>  <published_units>  (729) 
nM

>  <pchembl_value>  (729) 
5.63

>  <published_type>  (729) 
IC50

>  <activity_comment>  (729) 
None

$$$$

     RDKit          

 34 37  0  0  0  0  0  0  0  0999 V2000
    0.0000    0.0000    0.0000 C   0  0  0  0  0  0  0  0  0  0  0  0
    0.0000    0.0000    0.0000 C   0  0  0  0  0  0  0  0  0  0  0  0
    0.0000    0.0000    0.0000 N   0  0  0  0  0  0  0  0  0  0  0  0
    0.0000    0.0000    0.0000 C   0  0  0  0  0  0  0  0  0  0  0  0
    0.0000    0.0000    0.0000 C   0  0  0  0  0  0  0  0  0  0  0  0
    0.0000    0.0000    0.0000 C   0  0  0  0  0  0  0  0  0  0  0  0
    0.0000    0.0000    0.0000 O   0  0  0  0  0  0  0  0  0  0  0  0
    0.0000    0.0000    0.0000 C   0  0  0  0  0  0  0  0  0  0  0  0
    0.0000    0.0000    0.0000 C   0  0  0  0  0  0  0  0  0  0  0  0
    0.0000    0.0000    0.0000 C   0  0  0  0  0  0  0  0  0  0  0  0
    0.0000    0.0000    0.0000 C   0  0  0  0  0  0  0  0  0  0  0  0
    0.0000    0.0000    0.0000 C   0  0  0  0  0  0  0  0  0  0  0  0
    0.0000    0.0000    0.0000 C   0  0  0  0  0  0  0  0  0  0  0  0
    0.0000    0.0000    0.0000 C   0  0  0  0  0  0  0  0  0  0  0  0
    0.0000    0.0000    0.0000 C   0  0  0  0  0  0  0  0  0  0  0  0
    0.0000    0.0000    0.0000 C   0  0  0  0  0  0  0  0  0  0  0  0
    0.0000    0.0000    0.0000 C   0  0  0  0  0  0  0  0  0  0  0  0
    0.0000    0.0000    0.0000 N   0  0  0  0  0  0  0  0  0  0  0  0
    0.0000    0.0000    0.0000 C   0  0  0  0  0  0  0  0  0  0  0  0
    0.0000    0.0000    0.0000 C   0  0  0  0  0  0  0  0  0  0  0  0
    0.0000    0.0000    0.0000 C   0  0  0  0  0  0  0  0  0  0  0  0
    0.0000    0.0000    0.0000 C   0  0  0  0  0  0  0  0  0  0  0  0
    0.0000    0.0000    0.0000 C   0  0  0  0  0  0  0  0  0  0  0  0
    0.0000    0.0000    0.0000 F   0  0  0  0  0  0  0  0  0  0  0  0
    0.0000    0.0000    0.0000 C   0  0  0  0  0  0  0  0  0  0  0  0
    0.0000    0.0000    0.0000 C   0  0  0  0  0  0  0  0  0  0  0  0
    0.0000    0.0000    0.0000 C   0  0  0  0  0  0  0  0  0  0  0  0
    0.0000    0.0000    0.0000 C   0  0  0  0  0  0  0  0  0  0  0  0
    0.0000    0.0000    0.0000 C   0  0  0  0  0  0  0  0  0  0  0  0
    0.0000    0.0000    0.0000 C   0  0  0  0  0  0  0  0  0  0  0  0
    0.0000    0.0000    0.0000 C   0  0  0  0  0  0  0  0  0  0  0  0
    0.0000    0.0000    0.0000 C   0  0  0  0  0  0  0  0  0  0  0  0
    0.0000    0.0000    0.0000 C   0  0  0  0  0  0  0  0  0  0  0  0
    0.0000    0.0000    0.0000 N   0  0  0  0  0  0  0  0  0  0  0  0
  1  2  1  0
  2  3  1  0
  3  4  1  0
  4  5  1  0
  3  6  1  0
  6  7  2  0
  6  8  1  0
  8  9  2  0
  9 10  1  0
 10 11  2  0
 11 12  1  0
 12 13  2  0
 11 14  1  0
 14 15  2  3
 15 16  1  0
 16 17  1  0
 17 18  1  0
 18 19  1  0
 19 20  1  0
 20 21  2  0
 21 22  1  0
 22 23  2  0
 23 24  1  0
 23 25  1  0
 25 26  2  0
 18 27  1  0
 27 28  1  0
 14 29  1  0
 29 30  2  0
 30 31  1  0
 31 32  2  0
 32 33  1  0
 33 34  2  0
 13  8  1  0
 28 15  1  0
 26 20  1  0
 34 29  1  0
M  END
>  <pIC50>  (730) 
5.9

>  <ChEMBL_ID>  (730) 
CHEMBL1946016

>  <document_journal>  (730) 
Bioorg. Med. Chem. Lett.

>  <bao_endpoint>  (730) 
BAO_0000190

>  <potential_duplicate>  (730) 
False

>  <uo_units>  (730) 
UO_0000065

>  <canonical_smiles>  (730) 
CCN(CC)C(=O)c1ccc(cc1)C(=C2CCN(Cc3ccc(F)cc3)CC2)c4ccccn4

>  <parent_molecule_chembl_id>  (730) 
CHEMBL1946016

>  <assay_type>  (730) 
B

>  <src_id>  (730) 
1

>  <ligand_efficiency>  (730) 
{u'le': u'0.24', u'bei': u'12.9', u'sei': u'16.2', u'lle': u'0.52'}

>  <standard_flag>  (730) 
True

>  <molecule_chembl_id>  (730) 
CHEMBL1946016

>  <target_organism>  (730) 
Homo sapiens

>  <standard_units>  (730) 
nM

>  <record_id>  (730) 
1575202

>  <document_chembl_id>  (730) 
CHEMBL1944587

>  <bao_format>  (730) 
BAO_0000219

>  <data_validity_description>  (730) 
None

>  <activity_id>  (730) 
8021422

>  <standard_type>  (730) 
IC50

>  <target_chembl_id>  (730) 
CHEMBL233

>  <data_validity_comment>  (730) 
None

>  <published_value>  (730) 
1250

>  <document_year>  (730) 
2012

>  <target_pref_name>  (730) 
Mu opioid receptor

>  <assay_chembl_id>  (730) 
CHEMBL1947874

>  <standard_relation>  (730) 
=

>  <assay_description>  (730) 
Displacement of radiolabeled FK33-824 from mu opioid receptor expressed in HEK293 cell membranes

>  <published_relation>  (730) 
=

>  <standard_value>  (730) 
1250

>  <qudt_units>  (730) 
http://www.openphacts.org/units/Nanomolar

>  <target_tax_id>  (730) 
9606

>  <bao_label>  (730) 
cell-based format

>  <published_units>  (730) 
nM

>  <pchembl_value>  (730) 
5.9

>  <published_type>  (730) 
IC50

>  <activity_comment>  (730) 
None

$$$$

     RDKit          

 34 37  0  0  0  0  0  0  0  0999 V2000
    0.0000    0.0000    0.0000 C   0  0  0  0  0  0  0  0  0  0  0  0
    0.0000    0.0000    0.0000 C   0  0  0  0  0  0  0  0  0  0  0  0
    0.0000    0.0000    0.0000 N   0  0  0  0  0  0  0  0  0  0  0  0
    0.0000    0.0000    0.0000 C   0  0  0  0  0  0  0  0  0  0  0  0
    0.0000    0.0000    0.0000 C   0  0  0  0  0  0  0  0  0  0  0  0
    0.0000    0.0000    0.0000 C   0  0  0  0  0  0  0  0  0  0  0  0
    0.0000    0.0000    0.0000 O   0  0  0  0  0  0  0  0  0  0  0  0
    0.0000    0.0000    0.0000 C   0  0  0  0  0  0  0  0  0  0  0  0
    0.0000    0.0000    0.0000 C   0  0  0  0  0  0  0  0  0  0  0  0
    0.0000    0.0000    0.0000 C   0  0  0  0  0  0  0  0  0  0  0  0
    0.0000    0.0000    0.0000 C   0  0  0  0  0  0  0  0  0  0  0  0
    0.0000    0.0000    0.0000 C   0  0  0  0  0  0  0  0  0  0  0  0
    0.0000    0.0000    0.0000 C   0  0  0  0  0  0  0  0  0  0  0  0
    0.0000    0.0000    0.0000 C   0  0  0  0  0  0  0  0  0  0  0  0
    0.0000    0.0000    0.0000 C   0  0  0  0  0  0  0  0  0  0  0  0
    0.0000    0.0000    0.0000 C   0  0  0  0  0  0  0  0  0  0  0  0
    0.0000    0.0000    0.0000 C   0  0  0  0  0  0  0  0  0  0  0  0
    0.0000    0.0000    0.0000 N   0  0  0  0  0  0  0  0  0  0  0  0
    0.0000    0.0000    0.0000 C   0  0  0  0  0  0  0  0  0  0  0  0
    0.0000    0.0000    0.0000 C   0  0  0  0  0  0  0  0  0  0  0  0
    0.0000    0.0000    0.0000 C   0  0  0  0  0  0  0  0  0  0  0  0
    0.0000    0.0000    0.0000 C   0  0  0  0  0  0  0  0  0  0  0  0
    0.0000    0.0000    0.0000 C   0  0  0  0  0  0  0  0  0  0  0  0
    0.0000    0.0000    0.0000 F   0  0  0  0  0  0  0  0  0  0  0  0
    0.0000    0.0000    0.0000 C   0  0  0  0  0  0  0  0  0  0  0  0
    0.0000    0.0000    0.0000 C   0  0  0  0  0  0  0  0  0  0  0  0
    0.0000    0.0000    0.0000 C   0  0  0  0  0  0  0  0  0  0  0  0
    0.0000    0.0000    0.0000 C   0  0  0  0  0  0  0  0  0  0  0  0
    0.0000    0.0000    0.0000 C   0  0  0  0  0  0  0  0  0  0  0  0
    0.0000    0.0000    0.0000 C   0  0  0  0  0  0  0  0  0  0  0  0
    0.0000    0.0000    0.0000 C   0  0  0  0  0  0  0  0  0  0  0  0
    0.0000    0.0000    0.0000 C   0  0  0  0  0  0  0  0  0  0  0  0
    0.0000    0.0000    0.0000 N   0  0  0  0  0  0  0  0  0  0  0  0
    0.0000    0.0000    0.0000 C   0  0  0  0  0  0  0  0  0  0  0  0
  1  2  1  0
  2  3  1  0
  3  4  1  0
  4  5  1  0
  3  6  1  0
  6  7  2  0
  6  8  1  0
  8  9  2  0
  9 10  1  0
 10 11  2  0
 11 12  1  0
 12 13  2  0
 11 14  1  0
 14 15  2  3
 15 16  1  0
 16 17  1  0
 17 18  1  0
 18 19  1  0
 19 20  1  0
 20 21  2  0
 21 22  1  0
 22 23  2  0
 23 24  1  0
 23 25  1  0
 25 26  2  0
 18 27  1  0
 27 28  1  0
 14 29  1  0
 29 30  2  0
 30 31  1  0
 31 32  2  0
 32 33  1  0
 33 34  2  0
 13  8  1  0
 28 15  1  0
 26 20  1  0
 34 29  1  0
M  END
>  <pIC50>  (731) 
5.92

>  <ChEMBL_ID>  (731) 
CHEMBL1946017

>  <document_journal>  (731) 
Bioorg. Med. Chem. Lett.

>  <bao_endpoint>  (731) 
BAO_0000190

>  <potential_duplicate>  (731) 
False

>  <uo_units>  (731) 
UO_0000065

>  <canonical_smiles>  (731) 
CCN(CC)C(=O)c1ccc(cc1)C(=C2CCN(Cc3ccc(F)cc3)CC2)c4cccnc4

>  <parent_molecule_chembl_id>  (731) 
CHEMBL1946017

>  <assay_type>  (731) 
B

>  <src_id>  (731) 
1

>  <ligand_efficiency>  (731) 
{u'le': u'0.24', u'bei': u'12.94', u'sei': u'16.25', u'lle': u'0.96'}

>  <standard_flag>  (731) 
True

>  <molecule_chembl_id>  (731) 
CHEMBL1946017

>  <target_organism>  (731) 
Homo sapiens

>  <standard_units>  (731) 
nM

>  <record_id>  (731) 
1575203

>  <document_chembl_id>  (731) 
CHEMBL1944587

>  <bao_format>  (731) 
BAO_0000219

>  <data_validity_description>  (731) 
None

>  <activity_id>  (731) 
8021423

>  <standard_type>  (731) 
IC50

>  <target_chembl_id>  (731) 
CHEMBL233

>  <data_validity_comment>  (731) 
None

>  <published_value>  (731) 
1200

>  <document_year>  (731) 
2012

>  <target_pref_name>  (731) 
Mu opioid receptor

>  <assay_chembl_id>  (731) 
CHEMBL1947874

>  <standard_relation>  (731) 
=

>  <assay_description>  (731) 
Displacement of radiolabeled FK33-824 from mu opioid receptor expressed in HEK293 cell membranes

>  <published_relation>  (731) 
=

>  <standard_value>  (731) 
1200

>  <qudt_units>  (731) 
http://www.openphacts.org/units/Nanomolar

>  <target_tax_id>  (731) 
9606

>  <bao_label>  (731) 
cell-based format

>  <published_units>  (731) 
nM

>  <pchembl_value>  (731) 
5.92

>  <published_type>  (731) 
IC50

>  <activity_comment>  (731) 
None

$$$$

     RDKit          

 34 37  0  0  0  0  0  0  0  0999 V2000
    0.0000    0.0000    0.0000 C   0  0  0  0  0  0  0  0  0  0  0  0
    0.0000    0.0000    0.0000 C   0  0  0  0  0  0  0  0  0  0  0  0
    0.0000    0.0000    0.0000 N   0  0  0  0  0  0  0  0  0  0  0  0
    0.0000    0.0000    0.0000 C   0  0  0  0  0  0  0  0  0  0  0  0
    0.0000    0.0000    0.0000 C   0  0  0  0  0  0  0  0  0  0  0  0
    0.0000    0.0000    0.0000 C   0  0  0  0  0  0  0  0  0  0  0  0
    0.0000    0.0000    0.0000 O   0  0  0  0  0  0  0  0  0  0  0  0
    0.0000    0.0000    0.0000 C   0  0  0  0  0  0  0  0  0  0  0  0
    0.0000    0.0000    0.0000 C   0  0  0  0  0  0  0  0  0  0  0  0
    0.0000    0.0000    0.0000 C   0  0  0  0  0  0  0  0  0  0  0  0
    0.0000    0.0000    0.0000 C   0  0  0  0  0  0  0  0  0  0  0  0
    0.0000    0.0000    0.0000 C   0  0  0  0  0  0  0  0  0  0  0  0
    0.0000    0.0000    0.0000 C   0  0  0  0  0  0  0  0  0  0  0  0
    0.0000    0.0000    0.0000 C   0  0  0  0  0  0  0  0  0  0  0  0
    0.0000    0.0000    0.0000 C   0  0  0  0  0  0  0  0  0  0  0  0
    0.0000    0.0000    0.0000 C   0  0  0  0  0  0  0  0  0  0  0  0
    0.0000    0.0000    0.0000 C   0  0  0  0  0  0  0  0  0  0  0  0
    0.0000    0.0000    0.0000 N   0  0  0  0  0  0  0  0  0  0  0  0
    0.0000    0.0000    0.0000 C   0  0  0  0  0  0  0  0  0  0  0  0
    0.0000    0.0000    0.0000 C   0  0  0  0  0  0  0  0  0  0  0  0
    0.0000    0.0000    0.0000 C   0  0  0  0  0  0  0  0  0  0  0  0
    0.0000    0.0000    0.0000 C   0  0  0  0  0  0  0  0  0  0  0  0
    0.0000    0.0000    0.0000 C   0  0  0  0  0  0  0  0  0  0  0  0
    0.0000    0.0000    0.0000 F   0  0  0  0  0  0  0  0  0  0  0  0
    0.0000    0.0000    0.0000 C   0  0  0  0  0  0  0  0  0  0  0  0
    0.0000    0.0000    0.0000 C   0  0  0  0  0  0  0  0  0  0  0  0
    0.0000    0.0000    0.0000 C   0  0  0  0  0  0  0  0  0  0  0  0
    0.0000    0.0000    0.0000 C   0  0  0  0  0  0  0  0  0  0  0  0
    0.0000    0.0000    0.0000 C   0  0  0  0  0  0  0  0  0  0  0  0
    0.0000    0.0000    0.0000 C   0  0  0  0  0  0  0  0  0  0  0  0
    0.0000    0.0000    0.0000 C   0  0  0  0  0  0  0  0  0  0  0  0
    0.0000    0.0000    0.0000 N   0  0  0  0  0  0  0  0  0  0  0  0
    0.0000    0.0000    0.0000 C   0  0  0  0  0  0  0  0  0  0  0  0
    0.0000    0.0000    0.0000 C   0  0  0  0  0  0  0  0  0  0  0  0
  1  2  1  0
  2  3  1  0
  3  4  1  0
  4  5  1  0
  3  6  1  0
  6  7  2  0
  6  8  1  0
  8  9  2  0
  9 10  1  0
 10 11  2  0
 11 12  1  0
 12 13  2  0
 11 14  1  0
 14 15  2  3
 15 16  1  0
 16 17  1  0
 17 18  1  0
 18 19  1  0
 19 20  1  0
 20 21  2  0
 21 22  1  0
 22 23  2  0
 23 24  1  0
 23 25  1  0
 25 26  2  0
 18 27  1  0
 27 28  1  0
 14 29  1  0
 29 30  2  0
 30 31  1  0
 31 32  2  0
 32 33  1  0
 33 34  2  0
 13  8  1  0
 28 15  1  0
 26 20  1  0
 34 29  1  0
M  END
>  <pIC50>  (732) 
5.17

>  <ChEMBL_ID>  (732) 
CHEMBL1946018

>  <document_journal>  (732) 
Bioorg. Med. Chem. Lett.

>  <bao_endpoint>  (732) 
BAO_0000190

>  <potential_duplicate>  (732) 
False

>  <uo_units>  (732) 
UO_0000065

>  <canonical_smiles>  (732) 
CCN(CC)C(=O)c1ccc(cc1)C(=C2CCN(Cc3ccc(F)cc3)CC2)c4ccncc4

>  <parent_molecule_chembl_id>  (732) 
CHEMBL1946018

>  <assay_type>  (732) 
B

>  <src_id>  (732) 
1

>  <ligand_efficiency>  (732) 
{u'le': u'0.21', u'bei': u'11.29', u'sei': u'14.18', u'lle': u'0.21'}

>  <standard_flag>  (732) 
True

>  <molecule_chembl_id>  (732) 
CHEMBL1946018

>  <target_organism>  (732) 
Homo sapiens

>  <standard_units>  (732) 
nM

>  <record_id>  (732) 
1575204

>  <document_chembl_id>  (732) 
CHEMBL1944587

>  <bao_format>  (732) 
BAO_0000219

>  <data_validity_description>  (732) 
None

>  <activity_id>  (732) 
8021424

>  <standard_type>  (732) 
IC50

>  <target_chembl_id>  (732) 
CHEMBL233

>  <data_validity_comment>  (732) 
None

>  <published_value>  (732) 
6800

>  <document_year>  (732) 
2012

>  <target_pref_name>  (732) 
Mu opioid receptor

>  <assay_chembl_id>  (732) 
CHEMBL1947874

>  <standard_relation>  (732) 
=

>  <assay_description>  (732) 
Displacement of radiolabeled FK33-824 from mu opioid receptor expressed in HEK293 cell membranes

>  <published_relation>  (732) 
=

>  <standard_value>  (732) 
6800

>  <qudt_units>  (732) 
http://www.openphacts.org/units/Nanomolar

>  <target_tax_id>  (732) 
9606

>  <bao_label>  (732) 
cell-based format

>  <published_units>  (732) 
nM

>  <pchembl_value>  (732) 
5.17

>  <published_type>  (732) 
IC50

>  <activity_comment>  (732) 
None

$$$$

     RDKit          

 38 42  0  0  0  0  0  0  0  0999 V2000
    0.0000    0.0000    0.0000 C   0  0  0  0  0  0  0  0  0  0  0  0
    0.0000    0.0000    0.0000 C   0  0  0  0  0  0  0  0  0  0  0  0
    0.0000    0.0000    0.0000 N   0  0  0  0  0  0  0  0  0  0  0  0
    0.0000    0.0000    0.0000 C   0  0  0  0  0  0  0  0  0  0  0  0
    0.0000    0.0000    0.0000 C   0  0  0  0  0  0  0  0  0  0  0  0
    0.0000    0.0000    0.0000 C   0  0  0  0  0  0  0  0  0  0  0  0
    0.0000    0.0000    0.0000 O   0  0  0  0  0  0  0  0  0  0  0  0
    0.0000    0.0000    0.0000 C   0  0  0  0  0  0  0  0  0  0  0  0
    0.0000    0.0000    0.0000 C   0  0  0  0  0  0  0  0  0  0  0  0
    0.0000    0.0000    0.0000 C   0  0  0  0  0  0  0  0  0  0  0  0
    0.0000    0.0000    0.0000 C   0  0  0  0  0  0  0  0  0  0  0  0
    0.0000    0.0000    0.0000 C   0  0  0  0  0  0  0  0  0  0  0  0
    0.0000    0.0000    0.0000 C   0  0  0  0  0  0  0  0  0  0  0  0
    0.0000    0.0000    0.0000 C   0  0  0  0  0  0  0  0  0  0  0  0
    0.0000    0.0000    0.0000 C   0  0  0  0  0  0  0  0  0  0  0  0
    0.0000    0.0000    0.0000 C   0  0  0  0  0  0  0  0  0  0  0  0
    0.0000    0.0000    0.0000 C   0  0  0  0  0  0  0  0  0  0  0  0
    0.0000    0.0000    0.0000 N   0  0  0  0  0  0  0  0  0  0  0  0
    0.0000    0.0000    0.0000 C   0  0  0  0  0  0  0  0  0  0  0  0
    0.0000    0.0000    0.0000 C   0  0  0  0  0  0  0  0  0  0  0  0
    0.0000    0.0000    0.0000 C   0  0  0  0  0  0  0  0  0  0  0  0
    0.0000    0.0000    0.0000 C   0  0  0  0  0  0  0  0  0  0  0  0
    0.0000    0.0000    0.0000 C   0  0  0  0  0  0  0  0  0  0  0  0
    0.0000    0.0000    0.0000 F   0  0  0  0  0  0  0  0  0  0  0  0
    0.0000    0.0000    0.0000 C   0  0  0  0  0  0  0  0  0  0  0  0
    0.0000    0.0000    0.0000 C   0  0  0  0  0  0  0  0  0  0  0  0
    0.0000    0.0000    0.0000 C   0  0  0  0  0  0  0  0  0  0  0  0
    0.0000    0.0000    0.0000 C   0  0  0  0  0  0  0  0  0  0  0  0
    0.0000    0.0000    0.0000 C   0  0  0  0  0  0  0  0  0  0  0  0
    0.0000    0.0000    0.0000 C   0  0  0  0  0  0  0  0  0  0  0  0
    0.0000    0.0000    0.0000 C   0  0  0  0  0  0  0  0  0  0  0  0
    0.0000    0.0000    0.0000 C   0  0  0  0  0  0  0  0  0  0  0  0
    0.0000    0.0000    0.0000 C   0  0  0  0  0  0  0  0  0  0  0  0
    0.0000    0.0000    0.0000 C   0  0  0  0  0  0  0  0  0  0  0  0
    0.0000    0.0000    0.0000 C   0  0  0  0  0  0  0  0  0  0  0  0
    0.0000    0.0000    0.0000 C   0  0  0  0  0  0  0  0  0  0  0  0
    0.0000    0.0000    0.0000 N   0  0  0  0  0  0  0  0  0  0  0  0
    0.0000    0.0000    0.0000 C   0  0  0  0  0  0  0  0  0  0  0  0
  1  2  1  0
  2  3  1  0
  3  4  1  0
  4  5  1  0
  3  6  1  0
  6  7  2  0
  6  8  1  0
  8  9  2  0
  9 10  1  0
 10 11  2  0
 11 12  1  0
 12 13  2  0
 11 14  1  0
 14 15  2  3
 15 16  1  0
 16 17  1  0
 17 18  1  0
 18 19  1  0
 19 20  1  0
 20 21  2  0
 21 22  1  0
 22 23  2  0
 23 24  1  0
 23 25  1  0
 25 26  2  0
 18 27  1  0
 27 28  1  0
 14 29  1  0
 29 30  2  0
 30 31  1  0
 31 32  2  0
 32 33  1  0
 33 34  2  0
 34 35  1  0
 35 36  2  0
 36 37  1  0
 37 38  2  0
 13  8  1  0
 28 15  1  0
 26 20  1  0
 38 29  1  0
 38 33  1  0
M  END
>  <pIC50>  (733) 
6.38

>  <ChEMBL_ID>  (733) 
CHEMBL1944652

>  <document_journal>  (733) 
Bioorg. Med. Chem. Lett.

>  <bao_endpoint>  (733) 
BAO_0000190

>  <potential_duplicate>  (733) 
False

>  <uo_units>  (733) 
UO_0000065

>  <canonical_smiles>  (733) 
CCN(CC)C(=O)c1ccc(cc1)C(=C2CCN(Cc3ccc(F)cc3)CC2)c4cccc5cccnc45

>  <parent_molecule_chembl_id>  (733) 
CHEMBL1944652

>  <assay_type>  (733) 
B

>  <src_id>  (733) 
1

>  <ligand_efficiency>  (733) 
{u'le': u'0.23', u'bei': u'12.56', u'sei': u'17.5', u'lle': u'0.09'}

>  <standard_flag>  (733) 
True

>  <molecule_chembl_id>  (733) 
CHEMBL1944652

>  <target_organism>  (733) 
Homo sapiens

>  <standard_units>  (733) 
nM

>  <record_id>  (733) 
1575205

>  <document_chembl_id>  (733) 
CHEMBL1944587

>  <bao_format>  (733) 
BAO_0000219

>  <data_validity_description>  (733) 
None

>  <activity_id>  (733) 
8021425

>  <standard_type>  (733) 
IC50

>  <target_chembl_id>  (733) 
CHEMBL233

>  <data_validity_comment>  (733) 
None

>  <published_value>  (733) 
420

>  <document_year>  (733) 
2012

>  <target_pref_name>  (733) 
Mu opioid receptor

>  <assay_chembl_id>  (733) 
CHEMBL1947874

>  <standard_relation>  (733) 
=

>  <assay_description>  (733) 
Displacement of radiolabeled FK33-824 from mu opioid receptor expressed in HEK293 cell membranes

>  <published_relation>  (733) 
=

>  <standard_value>  (733) 
420

>  <qudt_units>  (733) 
http://www.openphacts.org/units/Nanomolar

>  <target_tax_id>  (733) 
9606

>  <bao_label>  (733) 
cell-based format

>  <published_units>  (733) 
nM

>  <pchembl_value>  (733) 
6.38

>  <published_type>  (733) 
IC50

>  <activity_comment>  (733) 
None

$$$$

     RDKit          

 37 40  0  0  0  0  0  0  0  0999 V2000
    0.0000    0.0000    0.0000 C   0  0  0  0  0  0  0  0  0  0  0  0
    0.0000    0.0000    0.0000 C   0  0  0  0  0  0  0  0  0  0  0  0
    0.0000    0.0000    0.0000 N   0  0  0  0  0  0  0  0  0  0  0  0
    0.0000    0.0000    0.0000 C   0  0  0  0  0  0  0  0  0  0  0  0
    0.0000    0.0000    0.0000 C   0  0  0  0  0  0  0  0  0  0  0  0
    0.0000    0.0000    0.0000 O   0  0  0  0  0  0  0  0  0  0  0  0
    0.0000    0.0000    0.0000 C   0  0  0  0  0  0  0  0  0  0  0  0
    0.0000    0.0000    0.0000 C   0  0  0  0  0  0  0  0  0  0  0  0
    0.0000    0.0000    0.0000 C   0  0  0  0  0  0  0  0  0  0  0  0
    0.0000    0.0000    0.0000 C   0  0  0  0  0  0  0  0  0  0  0  0
    0.0000    0.0000    0.0000 C   0  0  0  0  0  0  0  0  0  0  0  0
    0.0000    0.0000    0.0000 C   0  0  0  0  0  0  0  0  0  0  0  0
    0.0000    0.0000    0.0000 C   0  0  0  0  0  0  0  0  0  0  0  0
    0.0000    0.0000    0.0000 C   0  0  0  0  0  0  0  0  0  0  0  0
    0.0000    0.0000    0.0000 C   0  0  0  0  0  0  0  0  0  0  0  0
    0.0000    0.0000    0.0000 C   0  0  0  0  0  0  0  0  0  0  0  0
    0.0000    0.0000    0.0000 N   0  0  0  0  0  0  0  0  0  0  0  0
    0.0000    0.0000    0.0000 C   0  0  0  0  0  0  0  0  0  0  0  0
    0.0000    0.0000    0.0000 C   0  0  0  0  0  0  0  0  0  0  0  0
    0.0000    0.0000    0.0000 C   0  0  0  0  0  0  0  0  0  0  0  0
    0.0000    0.0000    0.0000 C   0  0  0  0  0  0  0  0  0  0  0  0
    0.0000    0.0000    0.0000 C   0  0  0  0  0  0  0  0  0  0  0  0
    0.0000    0.0000    0.0000 F   0  0  0  0  0  0  0  0  0  0  0  0
    0.0000    0.0000    0.0000 C   0  0  0  0  0  0  0  0  0  0  0  0
    0.0000    0.0000    0.0000 C   0  0  0  0  0  0  0  0  0  0  0  0
    0.0000    0.0000    0.0000 C   0  0  0  0  0  0  0  0  0  0  0  0
    0.0000    0.0000    0.0000 C   0  0  0  0  0  0  0  0  0  0  0  0
    0.0000    0.0000    0.0000 C   0  0  0  0  0  0  0  0  0  0  0  0
    0.0000    0.0000    0.0000 C   0  0  0  0  0  0  0  0  0  0  0  0
    0.0000    0.0000    0.0000 C   0  0  0  0  0  0  0  0  0  0  0  0
    0.0000    0.0000    0.0000 C   0  0  0  0  0  0  0  0  0  0  0  0
    0.0000    0.0000    0.0000 C   0  0  0  0  0  0  0  0  0  0  0  0
    0.0000    0.0000    0.0000 C   0  0  0  0  0  0  0  0  0  0  0  0
    0.0000    0.0000    0.0000 N   0  0  0  0  0  0  0  0  0  0  0  0
    0.0000    0.0000    0.0000 C   0  0  0  0  0  0  0  0  0  0  0  0
    0.0000    0.0000    0.0000 O   0  0  0  0  0  0  0  0  0  0  0  0
    0.0000    0.0000    0.0000 C   0  0  0  0  0  0  0  0  0  0  0  0
  1  2  1  0
  2  3  1  0
  3  4  1  0
  3  5  1  0
  5  6  2  0
  5  7  1  0
  7  8  2  0
  8  9  1  0
  9 10  2  0
 10 11  1  0
 11 12  2  0
 10 13  1  0
 13 14  2  3
 14 15  1  0
 15 16  1  0
 16 17  1  0
 17 18  1  0
 18 19  1  0
 19 20  2  0
 20 21  1  0
 21 22  2  0
 22 23  1  0
 22 24  1  0
 24 25  2  0
 17 26  1  0
 26 27  1  0
 13 28  1  0
 28 29  2  0
 29 30  1  0
 30 31  2  0
 31 32  1  0
 32 33  2  0
 33 34  1  0
 34 35  1  0
 35 36  2  0
 35 37  1  0
 12  7  1  0
 27 14  1  0
 25 19  1  0
 33 28  1  0
M  END
>  <pIC50>  (734) 
6.0

>  <ChEMBL_ID>  (734) 
CHEMBL1946019

>  <document_journal>  (734) 
Bioorg. Med. Chem. Lett.

>  <bao_endpoint>  (734) 
BAO_0000190

>  <potential_duplicate>  (734) 
False

>  <uo_units>  (734) 
UO_0000065

>  <canonical_smiles>  (734) 
CCN(C)C(=O)c1ccc(cc1)C(=C2CCN(Cc3ccc(F)cc3)CC2)c4ccccc4NC(=O)C

>  <parent_molecule_chembl_id>  (734) 
CHEMBL1946019

>  <assay_type>  (734) 
B

>  <src_id>  (734) 
1

>  <ligand_efficiency>  (734) 
{u'le': u'0.22', u'bei': u'12.02', u'sei': u'11.4', u'lle': u'1.12'}

>  <standard_flag>  (734) 
True

>  <molecule_chembl_id>  (734) 
CHEMBL1946019

>  <target_organism>  (734) 
Homo sapiens

>  <standard_units>  (734) 
nM

>  <record_id>  (734) 
1575206

>  <document_chembl_id>  (734) 
CHEMBL1944587

>  <bao_format>  (734) 
BAO_0000219

>  <data_validity_description>  (734) 
None

>  <activity_id>  (734) 
8021426

>  <standard_type>  (734) 
IC50

>  <target_chembl_id>  (734) 
CHEMBL233

>  <data_validity_comment>  (734) 
None

>  <published_value>  (734) 
990

>  <document_year>  (734) 
2012

>  <target_pref_name>  (734) 
Mu opioid receptor

>  <assay_chembl_id>  (734) 
CHEMBL1947874

>  <standard_relation>  (734) 
=

>  <assay_description>  (734) 
Displacement of radiolabeled FK33-824 from mu opioid receptor expressed in HEK293 cell membranes

>  <published_relation>  (734) 
=

>  <standard_value>  (734) 
990

>  <qudt_units>  (734) 
http://www.openphacts.org/units/Nanomolar

>  <target_tax_id>  (734) 
9606

>  <bao_label>  (734) 
cell-based format

>  <published_units>  (734) 
nM

>  <pchembl_value>  (734) 
6

>  <published_type>  (734) 
IC50

>  <activity_comment>  (734) 
None

$$$$

     RDKit          

 38 41  0  0  0  0  0  0  0  0999 V2000
    0.0000    0.0000    0.0000 C   0  0  0  0  0  0  0  0  0  0  0  0
    0.0000    0.0000    0.0000 C   0  0  0  0  0  0  0  0  0  0  0  0
    0.0000    0.0000    0.0000 N   0  0  0  0  0  0  0  0  0  0  0  0
    0.0000    0.0000    0.0000 C   0  0  0  0  0  0  0  0  0  0  0  0
    0.0000    0.0000    0.0000 C   0  0  0  0  0  0  0  0  0  0  0  0
    0.0000    0.0000    0.0000 C   0  0  0  0  0  0  0  0  0  0  0  0
    0.0000    0.0000    0.0000 O   0  0  0  0  0  0  0  0  0  0  0  0
    0.0000    0.0000    0.0000 C   0  0  0  0  0  0  0  0  0  0  0  0
    0.0000    0.0000    0.0000 C   0  0  0  0  0  0  0  0  0  0  0  0
    0.0000    0.0000    0.0000 C   0  0  0  0  0  0  0  0  0  0  0  0
    0.0000    0.0000    0.0000 C   0  0  0  0  0  0  0  0  0  0  0  0
    0.0000    0.0000    0.0000 C   0  0  0  0  0  0  0  0  0  0  0  0
    0.0000    0.0000    0.0000 C   0  0  0  0  0  0  0  0  0  0  0  0
    0.0000    0.0000    0.0000 C   0  0  0  0  0  0  0  0  0  0  0  0
    0.0000    0.0000    0.0000 C   0  0  0  0  0  0  0  0  0  0  0  0
    0.0000    0.0000    0.0000 C   0  0  0  0  0  0  0  0  0  0  0  0
    0.0000    0.0000    0.0000 C   0  0  0  0  0  0  0  0  0  0  0  0
    0.0000    0.0000    0.0000 N   0  0  0  0  0  0  0  0  0  0  0  0
    0.0000    0.0000    0.0000 C   0  0  0  0  0  0  0  0  0  0  0  0
    0.0000    0.0000    0.0000 C   0  0  0  0  0  0  0  0  0  0  0  0
    0.0000    0.0000    0.0000 C   0  0  0  0  0  0  0  0  0  0  0  0
    0.0000    0.0000    0.0000 C   0  0  0  0  0  0  0  0  0  0  0  0
    0.0000    0.0000    0.0000 C   0  0  0  0  0  0  0  0  0  0  0  0
    0.0000    0.0000    0.0000 F   0  0  0  0  0  0  0  0  0  0  0  0
    0.0000    0.0000    0.0000 C   0  0  0  0  0  0  0  0  0  0  0  0
    0.0000    0.0000    0.0000 C   0  0  0  0  0  0  0  0  0  0  0  0
    0.0000    0.0000    0.0000 C   0  0  0  0  0  0  0  0  0  0  0  0
    0.0000    0.0000    0.0000 C   0  0  0  0  0  0  0  0  0  0  0  0
    0.0000    0.0000    0.0000 C   0  0  0  0  0  0  0  0  0  0  0  0
    0.0000    0.0000    0.0000 C   0  0  0  0  0  0  0  0  0  0  0  0
    0.0000    0.0000    0.0000 C   0  0  0  0  0  0  0  0  0  0  0  0
    0.0000    0.0000    0.0000 C   0  0  0  0  0  0  0  0  0  0  0  0
    0.0000    0.0000    0.0000 C   0  0  0  0  0  0  0  0  0  0  0  0
    0.0000    0.0000    0.0000 N   0  0  0  0  0  0  0  0  0  0  0  0
    0.0000    0.0000    0.0000 C   0  0  0  0  0  0  0  0  0  0  0  0
    0.0000    0.0000    0.0000 O   0  0  0  0  0  0  0  0  0  0  0  0
    0.0000    0.0000    0.0000 C   0  0  0  0  0  0  0  0  0  0  0  0
    0.0000    0.0000    0.0000 C   0  0  0  0  0  0  0  0  0  0  0  0
  1  2  1  0
  2  3  1  0
  3  4  1  0
  4  5  1  0
  3  6  1  0
  6  7  2  0
  6  8  1  0
  8  9  2  0
  9 10  1  0
 10 11  2  0
 11 12  1  0
 12 13  2  0
 11 14  1  0
 14 15  2  3
 15 16  1  0
 16 17  1  0
 17 18  1  0
 18 19  1  0
 19 20  1  0
 20 21  2  0
 21 22  1  0
 22 23  2  0
 23 24  1  0
 23 25  1  0
 25 26  2  0
 18 27  1  0
 27 28  1  0
 14 29  1  0
 29 30  2  0
 30 31  1  0
 31 32  2  0
 32 33  1  0
 33 34  1  0
 34 35  1  0
 35 36  2  0
 35 37  1  0
 33 38  2  0
 13  8  1  0
 28 15  1  0
 26 20  1  0
 38 29  1  0
M  END
>  <pIC50>  (735) 
7.2

>  <ChEMBL_ID>  (735) 
CHEMBL1946020

>  <document_journal>  (735) 
Bioorg. Med. Chem. Lett.

>  <bao_endpoint>  (735) 
BAO_0000190

>  <potential_duplicate>  (735) 
False

>  <uo_units>  (735) 
UO_0000065

>  <canonical_smiles>  (735) 
CCN(CC)C(=O)c1ccc(cc1)C(=C2CCN(Cc3ccc(F)cc3)CC2)c4cccc(NC(=O)C)c4

>  <parent_molecule_chembl_id>  (735) 
CHEMBL1946020

>  <assay_type>  (735) 
B

>  <src_id>  (735) 
1

>  <ligand_efficiency>  (735) 
{u'le': u'0.26', u'bei': u'14.02', u'sei': u'13.68', u'lle': u'1.97'}

>  <standard_flag>  (735) 
True

>  <molecule_chembl_id>  (735) 
CHEMBL1946020

>  <target_organism>  (735) 
Homo sapiens

>  <standard_units>  (735) 
nM

>  <record_id>  (735) 
1575207

>  <document_chembl_id>  (735) 
CHEMBL1944587

>  <bao_format>  (735) 
BAO_0000219

>  <data_validity_description>  (735) 
None

>  <activity_id>  (735) 
8021427

>  <standard_type>  (735) 
IC50

>  <target_chembl_id>  (735) 
CHEMBL233

>  <data_validity_comment>  (735) 
None

>  <published_value>  (735) 
63

>  <document_year>  (735) 
2012

>  <target_pref_name>  (735) 
Mu opioid receptor

>  <assay_chembl_id>  (735) 
CHEMBL1947874

>  <standard_relation>  (735) 
=

>  <assay_description>  (735) 
Displacement of radiolabeled FK33-824 from mu opioid receptor expressed in HEK293 cell membranes

>  <published_relation>  (735) 
=

>  <standard_value>  (735) 
63

>  <qudt_units>  (735) 
http://www.openphacts.org/units/Nanomolar

>  <target_tax_id>  (735) 
9606

>  <bao_label>  (735) 
cell-based format

>  <published_units>  (735) 
nM

>  <pchembl_value>  (735) 
7.2

>  <published_type>  (735) 
IC50

>  <activity_comment>  (735) 
None

$$$$

     RDKit          

 38 41  0  0  0  0  0  0  0  0999 V2000
    0.0000    0.0000    0.0000 C   0  0  0  0  0  0  0  0  0  0  0  0
    0.0000    0.0000    0.0000 C   0  0  0  0  0  0  0  0  0  0  0  0
    0.0000    0.0000    0.0000 N   0  0  0  0  0  0  0  0  0  0  0  0
    0.0000    0.0000    0.0000 C   0  0  0  0  0  0  0  0  0  0  0  0
    0.0000    0.0000    0.0000 C   0  0  0  0  0  0  0  0  0  0  0  0
    0.0000    0.0000    0.0000 C   0  0  0  0  0  0  0  0  0  0  0  0
    0.0000    0.0000    0.0000 O   0  0  0  0  0  0  0  0  0  0  0  0
    0.0000    0.0000    0.0000 C   0  0  0  0  0  0  0  0  0  0  0  0
    0.0000    0.0000    0.0000 C   0  0  0  0  0  0  0  0  0  0  0  0
    0.0000    0.0000    0.0000 C   0  0  0  0  0  0  0  0  0  0  0  0
    0.0000    0.0000    0.0000 C   0  0  0  0  0  0  0  0  0  0  0  0
    0.0000    0.0000    0.0000 C   0  0  0  0  0  0  0  0  0  0  0  0
    0.0000    0.0000    0.0000 C   0  0  0  0  0  0  0  0  0  0  0  0
    0.0000    0.0000    0.0000 C   0  0  0  0  0  0  0  0  0  0  0  0
    0.0000    0.0000    0.0000 C   0  0  0  0  0  0  0  0  0  0  0  0
    0.0000    0.0000    0.0000 C   0  0  0  0  0  0  0  0  0  0  0  0
    0.0000    0.0000    0.0000 C   0  0  0  0  0  0  0  0  0  0  0  0
    0.0000    0.0000    0.0000 N   0  0  0  0  0  0  0  0  0  0  0  0
    0.0000    0.0000    0.0000 C   0  0  0  0  0  0  0  0  0  0  0  0
    0.0000    0.0000    0.0000 C   0  0  0  0  0  0  0  0  0  0  0  0
    0.0000    0.0000    0.0000 C   0  0  0  0  0  0  0  0  0  0  0  0
    0.0000    0.0000    0.0000 C   0  0  0  0  0  0  0  0  0  0  0  0
    0.0000    0.0000    0.0000 C   0  0  0  0  0  0  0  0  0  0  0  0
    0.0000    0.0000    0.0000 F   0  0  0  0  0  0  0  0  0  0  0  0
    0.0000    0.0000    0.0000 C   0  0  0  0  0  0  0  0  0  0  0  0
    0.0000    0.0000    0.0000 C   0  0  0  0  0  0  0  0  0  0  0  0
    0.0000    0.0000    0.0000 C   0  0  0  0  0  0  0  0  0  0  0  0
    0.0000    0.0000    0.0000 C   0  0  0  0  0  0  0  0  0  0  0  0
    0.0000    0.0000    0.0000 C   0  0  0  0  0  0  0  0  0  0  0  0
    0.0000    0.0000    0.0000 C   0  0  0  0  0  0  0  0  0  0  0  0
    0.0000    0.0000    0.0000 C   0  0  0  0  0  0  0  0  0  0  0  0
    0.0000    0.0000    0.0000 C   0  0  0  0  0  0  0  0  0  0  0  0
    0.0000    0.0000    0.0000 N   0  0  0  0  0  0  0  0  0  0  0  0
    0.0000    0.0000    0.0000 C   0  0  0  0  0  0  0  0  0  0  0  0
    0.0000    0.0000    0.0000 O   0  0  0  0  0  0  0  0  0  0  0  0
    0.0000    0.0000    0.0000 C   0  0  0  0  0  0  0  0  0  0  0  0
    0.0000    0.0000    0.0000 C   0  0  0  0  0  0  0  0  0  0  0  0
    0.0000    0.0000    0.0000 C   0  0  0  0  0  0  0  0  0  0  0  0
  1  2  1  0
  2  3  1  0
  3  4  1  0
  4  5  1  0
  3  6  1  0
  6  7  2  0
  6  8  1  0
  8  9  2  0
  9 10  1  0
 10 11  2  0
 11 12  1  0
 12 13  2  0
 11 14  1  0
 14 15  2  3
 15 16  1  0
 16 17  1  0
 17 18  1  0
 18 19  1  0
 19 20  1  0
 20 21  2  0
 21 22  1  0
 22 23  2  0
 23 24  1  0
 23 25  1  0
 25 26  2  0
 18 27  1  0
 27 28  1  0
 14 29  1  0
 29 30  2  0
 30 31  1  0
 31 32  2  0
 32 33  1  0
 33 34  1  0
 34 35  2  0
 34 36  1  0
 32 37  1  0
 37 38  2  0
 13  8  1  0
 28 15  1  0
 26 20  1  0
 38 29  1  0
M  END
>  <pIC50>  (736) 
6.77

>  <ChEMBL_ID>  (736) 
CHEMBL1946021

>  <document_journal>  (736) 
Bioorg. Med. Chem. Lett.

>  <bao_endpoint>  (736) 
BAO_0000190

>  <potential_duplicate>  (736) 
False

>  <uo_units>  (736) 
UO_0000065

>  <canonical_smiles>  (736) 
CCN(CC)C(=O)c1ccc(cc1)C(=C2CCN(Cc3ccc(F)cc3)CC2)c4ccc(NC(=O)C)cc4

>  <parent_molecule_chembl_id>  (736) 
CHEMBL1946021

>  <assay_type>  (736) 
B

>  <src_id>  (736) 
1

>  <ligand_efficiency>  (736) 
{u'le': u'0.24', u'bei': u'13.18', u'sei': u'12.86', u'lle': u'1.54'}

>  <standard_flag>  (736) 
True

>  <molecule_chembl_id>  (736) 
CHEMBL1946021

>  <target_organism>  (736) 
Homo sapiens

>  <standard_units>  (736) 
nM

>  <record_id>  (736) 
1575208

>  <document_chembl_id>  (736) 
CHEMBL1944587

>  <bao_format>  (736) 
BAO_0000219

>  <data_validity_description>  (736) 
None

>  <activity_id>  (736) 
8021428

>  <standard_type>  (736) 
IC50

>  <target_chembl_id>  (736) 
CHEMBL233

>  <data_validity_comment>  (736) 
None

>  <published_value>  (736) 
170

>  <document_year>  (736) 
2012

>  <target_pref_name>  (736) 
Mu opioid receptor

>  <assay_chembl_id>  (736) 
CHEMBL1947874

>  <standard_relation>  (736) 
=

>  <assay_description>  (736) 
Displacement of radiolabeled FK33-824 from mu opioid receptor expressed in HEK293 cell membranes

>  <published_relation>  (736) 
=

>  <standard_value>  (736) 
170

>  <qudt_units>  (736) 
http://www.openphacts.org/units/Nanomolar

>  <target_tax_id>  (736) 
9606

>  <bao_label>  (736) 
cell-based format

>  <published_units>  (736) 
nM

>  <pchembl_value>  (736) 
6.77

>  <published_type>  (736) 
IC50

>  <activity_comment>  (736) 
None

$$$$

     RDKit          

 39 42  0  0  0  0  0  0  0  0999 V2000
    0.0000    0.0000    0.0000 C   0  0  0  0  0  0  0  0  0  0  0  0
    0.0000    0.0000    0.0000 C   0  0  0  0  0  0  0  0  0  0  0  0
    0.0000    0.0000    0.0000 N   0  0  0  0  0  0  0  0  0  0  0  0
    0.0000    0.0000    0.0000 C   0  0  0  0  0  0  0  0  0  0  0  0
    0.0000    0.0000    0.0000 C   0  0  0  0  0  0  0  0  0  0  0  0
    0.0000    0.0000    0.0000 C   0  0  0  0  0  0  0  0  0  0  0  0
    0.0000    0.0000    0.0000 O   0  0  0  0  0  0  0  0  0  0  0  0
    0.0000    0.0000    0.0000 C   0  0  0  0  0  0  0  0  0  0  0  0
    0.0000    0.0000    0.0000 C   0  0  0  0  0  0  0  0  0  0  0  0
    0.0000    0.0000    0.0000 C   0  0  0  0  0  0  0  0  0  0  0  0
    0.0000    0.0000    0.0000 C   0  0  0  0  0  0  0  0  0  0  0  0
    0.0000    0.0000    0.0000 C   0  0  0  0  0  0  0  0  0  0  0  0
    0.0000    0.0000    0.0000 C   0  0  0  0  0  0  0  0  0  0  0  0
    0.0000    0.0000    0.0000 C   0  0  0  0  0  0  0  0  0  0  0  0
    0.0000    0.0000    0.0000 C   0  0  0  0  0  0  0  0  0  0  0  0
    0.0000    0.0000    0.0000 C   0  0  0  0  0  0  0  0  0  0  0  0
    0.0000    0.0000    0.0000 C   0  0  0  0  0  0  0  0  0  0  0  0
    0.0000    0.0000    0.0000 N   0  0  0  0  0  0  0  0  0  0  0  0
    0.0000    0.0000    0.0000 C   0  0  0  0  0  0  0  0  0  0  0  0
    0.0000    0.0000    0.0000 C   0  0  0  0  0  0  0  0  0  0  0  0
    0.0000    0.0000    0.0000 C   0  0  0  0  0  0  0  0  0  0  0  0
    0.0000    0.0000    0.0000 C   0  0  0  0  0  0  0  0  0  0  0  0
    0.0000    0.0000    0.0000 C   0  0  0  0  0  0  0  0  0  0  0  0
    0.0000    0.0000    0.0000 F   0  0  0  0  0  0  0  0  0  0  0  0
    0.0000    0.0000    0.0000 C   0  0  0  0  0  0  0  0  0  0  0  0
    0.0000    0.0000    0.0000 C   0  0  0  0  0  0  0  0  0  0  0  0
    0.0000    0.0000    0.0000 C   0  0  0  0  0  0  0  0  0  0  0  0
    0.0000    0.0000    0.0000 C   0  0  0  0  0  0  0  0  0  0  0  0
    0.0000    0.0000    0.0000 C   0  0  0  0  0  0  0  0  0  0  0  0
    0.0000    0.0000    0.0000 C   0  0  0  0  0  0  0  0  0  0  0  0
    0.0000    0.0000    0.0000 C   0  0  0  0  0  0  0  0  0  0  0  0
    0.0000    0.0000    0.0000 C   0  0  0  0  0  0  0  0  0  0  0  0
    0.0000    0.0000    0.0000 C   0  0  0  0  0  0  0  0  0  0  0  0
    0.0000    0.0000    0.0000 C   0  0  0  0  0  0  0  0  0  0  0  0
    0.0000    0.0000    0.0000 N   0  0  0  0  0  0  0  0  0  0  0  0
    0.0000    0.0000    0.0000 C   0  0  0  0  0  0  0  0  0  0  0  0
    0.0000    0.0000    0.0000 O   0  0  0  0  0  0  0  0  0  0  0  0
    0.0000    0.0000    0.0000 O   0  0  0  0  0  0  0  0  0  0  0  0
    0.0000    0.0000    0.0000 C   0  0  0  0  0  0  0  0  0  0  0  0
  1  2  1  0
  2  3  1  0
  3  4  1  0
  4  5  1  0
  3  6  1  0
  6  7  2  0
  6  8  1  0
  8  9  2  0
  9 10  1  0
 10 11  2  0
 11 12  1  0
 12 13  2  0
 11 14  1  0
 14 15  2  3
 15 16  1  0
 16 17  1  0
 17 18  1  0
 18 19  1  0
 19 20  1  0
 20 21  2  0
 21 22  1  0
 22 23  2  0
 23 24  1  0
 23 25  1  0
 25 26  2  0
 18 27  1  0
 27 28  1  0
 14 29  1  0
 29 30  2  0
 30 31  1  0
 31 32  2  0
 32 33  1  0
 33 34  2  0
 34 35  1  0
 35 36  1  0
 36 37  2  0
 36 38  1  0
 38 39  1  0
 13  8  1  0
 28 15  1  0
 26 20  1  0
 34 29  1  0
M  END
>  <pIC50>  (737) 
5.8

>  <ChEMBL_ID>  (737) 
CHEMBL1946022

>  <document_journal>  (737) 
Bioorg. Med. Chem. Lett.

>  <bao_endpoint>  (737) 
BAO_0000190

>  <potential_duplicate>  (737) 
False

>  <uo_units>  (737) 
UO_0000065

>  <canonical_smiles>  (737) 
CCN(CC)C(=O)c1ccc(cc1)C(=C2CCN(Cc3ccc(F)cc3)CC2)c4ccccc4NC(=O)OC

>  <parent_molecule_chembl_id>  (737) 
CHEMBL1946022

>  <assay_type>  (737) 
B

>  <src_id>  (737) 
1

>  <ligand_efficiency>  (737) 
{u'le': u'0.2', u'bei': u'10.94', u'sei': u'9.37', u'lle': u'-0.07'}

>  <standard_flag>  (737) 
True

>  <molecule_chembl_id>  (737) 
CHEMBL1946022

>  <target_organism>  (737) 
Homo sapiens

>  <standard_units>  (737) 
nM

>  <record_id>  (737) 
1575209

>  <document_chembl_id>  (737) 
CHEMBL1944587

>  <bao_format>  (737) 
BAO_0000219

>  <data_validity_description>  (737) 
None

>  <activity_id>  (737) 
8021429

>  <standard_type>  (737) 
IC50

>  <target_chembl_id>  (737) 
CHEMBL233

>  <data_validity_comment>  (737) 
None

>  <published_value>  (737) 
1600

>  <document_year>  (737) 
2012

>  <target_pref_name>  (737) 
Mu opioid receptor

>  <assay_chembl_id>  (737) 
CHEMBL1947874

>  <standard_relation>  (737) 
=

>  <assay_description>  (737) 
Displacement of radiolabeled FK33-824 from mu opioid receptor expressed in HEK293 cell membranes

>  <published_relation>  (737) 
=

>  <standard_value>  (737) 
1600

>  <qudt_units>  (737) 
http://www.openphacts.org/units/Nanomolar

>  <target_tax_id>  (737) 
9606

>  <bao_label>  (737) 
cell-based format

>  <published_units>  (737) 
nM

>  <pchembl_value>  (737) 
5.8

>  <published_type>  (737) 
IC50

>  <activity_comment>  (737) 
None

$$$$

     RDKit          

 39 42  0  0  0  0  0  0  0  0999 V2000
    0.0000    0.0000    0.0000 C   0  0  0  0  0  0  0  0  0  0  0  0
    0.0000    0.0000    0.0000 C   0  0  0  0  0  0  0  0  0  0  0  0
    0.0000    0.0000    0.0000 N   0  0  0  0  0  0  0  0  0  0  0  0
    0.0000    0.0000    0.0000 C   0  0  0  0  0  0  0  0  0  0  0  0
    0.0000    0.0000    0.0000 C   0  0  0  0  0  0  0  0  0  0  0  0
    0.0000    0.0000    0.0000 C   0  0  0  0  0  0  0  0  0  0  0  0
    0.0000    0.0000    0.0000 O   0  0  0  0  0  0  0  0  0  0  0  0
    0.0000    0.0000    0.0000 C   0  0  0  0  0  0  0  0  0  0  0  0
    0.0000    0.0000    0.0000 C   0  0  0  0  0  0  0  0  0  0  0  0
    0.0000    0.0000    0.0000 C   0  0  0  0  0  0  0  0  0  0  0  0
    0.0000    0.0000    0.0000 C   0  0  0  0  0  0  0  0  0  0  0  0
    0.0000    0.0000    0.0000 C   0  0  0  0  0  0  0  0  0  0  0  0
    0.0000    0.0000    0.0000 C   0  0  0  0  0  0  0  0  0  0  0  0
    0.0000    0.0000    0.0000 C   0  0  0  0  0  0  0  0  0  0  0  0
    0.0000    0.0000    0.0000 C   0  0  0  0  0  0  0  0  0  0  0  0
    0.0000    0.0000    0.0000 C   0  0  0  0  0  0  0  0  0  0  0  0
    0.0000    0.0000    0.0000 C   0  0  0  0  0  0  0  0  0  0  0  0
    0.0000    0.0000    0.0000 N   0  0  0  0  0  0  0  0  0  0  0  0
    0.0000    0.0000    0.0000 C   0  0  0  0  0  0  0  0  0  0  0  0
    0.0000    0.0000    0.0000 C   0  0  0  0  0  0  0  0  0  0  0  0
    0.0000    0.0000    0.0000 C   0  0  0  0  0  0  0  0  0  0  0  0
    0.0000    0.0000    0.0000 C   0  0  0  0  0  0  0  0  0  0  0  0
    0.0000    0.0000    0.0000 C   0  0  0  0  0  0  0  0  0  0  0  0
    0.0000    0.0000    0.0000 F   0  0  0  0  0  0  0  0  0  0  0  0
    0.0000    0.0000    0.0000 C   0  0  0  0  0  0  0  0  0  0  0  0
    0.0000    0.0000    0.0000 C   0  0  0  0  0  0  0  0  0  0  0  0
    0.0000    0.0000    0.0000 C   0  0  0  0  0  0  0  0  0  0  0  0
    0.0000    0.0000    0.0000 C   0  0  0  0  0  0  0  0  0  0  0  0
    0.0000    0.0000    0.0000 C   0  0  0  0  0  0  0  0  0  0  0  0
    0.0000    0.0000    0.0000 C   0  0  0  0  0  0  0  0  0  0  0  0
    0.0000    0.0000    0.0000 C   0  0  0  0  0  0  0  0  0  0  0  0
    0.0000    0.0000    0.0000 C   0  0  0  0  0  0  0  0  0  0  0  0
    0.0000    0.0000    0.0000 C   0  0  0  0  0  0  0  0  0  0  0  0
    0.0000    0.0000    0.0000 N   0  0  0  0  0  0  0  0  0  0  0  0
    0.0000    0.0000    0.0000 C   0  0  0  0  0  0  0  0  0  0  0  0
    0.0000    0.0000    0.0000 O   0  0  0  0  0  0  0  0  0  0  0  0
    0.0000    0.0000    0.0000 O   0  0  0  0  0  0  0  0  0  0  0  0
    0.0000    0.0000    0.0000 C   0  0  0  0  0  0  0  0  0  0  0  0
    0.0000    0.0000    0.0000 C   0  0  0  0  0  0  0  0  0  0  0  0
  1  2  1  0
  2  3  1  0
  3  4  1  0
  4  5  1  0
  3  6  1  0
  6  7  2  0
  6  8  1  0
  8  9  2  0
  9 10  1  0
 10 11  2  0
 11 12  1  0
 12 13  2  0
 11 14  1  0
 14 15  2  3
 15 16  1  0
 16 17  1  0
 17 18  1  0
 18 19  1  0
 19 20  1  0
 20 21  2  0
 21 22  1  0
 22 23  2  0
 23 24  1  0
 23 25  1  0
 25 26  2  0
 18 27  1  0
 27 28  1  0
 14 29  1  0
 29 30  2  0
 30 31  1  0
 31 32  2  0
 32 33  1  0
 33 34  1  0
 34 35  1  0
 35 36  2  0
 35 37  1  0
 37 38  1  0
 33 39  2  0
 13  8  1  0
 28 15  1  0
 26 20  1  0
 39 29  1  0
M  END
>  <pIC50>  (738) 
7.48

>  <ChEMBL_ID>  (738) 
CHEMBL1946023

>  <document_journal>  (738) 
Bioorg. Med. Chem. Lett.

>  <bao_endpoint>  (738) 
BAO_0000190

>  <potential_duplicate>  (738) 
False

>  <uo_units>  (738) 
UO_0000065

>  <canonical_smiles>  (738) 
CCN(CC)C(=O)c1ccc(cc1)C(=C2CCN(Cc3ccc(F)cc3)CC2)c4cccc(NC(=O)OC)c4

>  <parent_molecule_chembl_id>  (738) 
CHEMBL1946023

>  <assay_type>  (738) 
B

>  <src_id>  (738) 
1

>  <ligand_efficiency>  (738) 
{u'le': u'0.26', u'bei': u'14.13', u'sei': u'12.09', u'lle': u'1.61'}

>  <standard_flag>  (738) 
True

>  <molecule_chembl_id>  (738) 
CHEMBL1946023

>  <target_organism>  (738) 
Homo sapiens

>  <standard_units>  (738) 
nM

>  <record_id>  (738) 
1575210

>  <document_chembl_id>  (738) 
CHEMBL1944587

>  <bao_format>  (738) 
BAO_0000219

>  <data_validity_description>  (738) 
None

>  <activity_id>  (738) 
8021430

>  <standard_type>  (738) 
IC50

>  <target_chembl_id>  (738) 
CHEMBL233

>  <data_validity_comment>  (738) 
None

>  <published_value>  (738) 
33

>  <document_year>  (738) 
2012

>  <target_pref_name>  (738) 
Mu opioid receptor

>  <assay_chembl_id>  (738) 
CHEMBL1947874

>  <standard_relation>  (738) 
=

>  <assay_description>  (738) 
Displacement of radiolabeled FK33-824 from mu opioid receptor expressed in HEK293 cell membranes

>  <published_relation>  (738) 
=

>  <standard_value>  (738) 
33

>  <qudt_units>  (738) 
http://www.openphacts.org/units/Nanomolar

>  <target_tax_id>  (738) 
9606

>  <bao_label>  (738) 
cell-based format

>  <published_units>  (738) 
nM

>  <pchembl_value>  (738) 
7.48

>  <published_type>  (738) 
IC50

>  <activity_comment>  (738) 
None

$$$$

     RDKit          

 39 42  0  0  0  0  0  0  0  0999 V2000
    0.0000    0.0000    0.0000 C   0  0  0  0  0  0  0  0  0  0  0  0
    0.0000    0.0000    0.0000 C   0  0  0  0  0  0  0  0  0  0  0  0
    0.0000    0.0000    0.0000 N   0  0  0  0  0  0  0  0  0  0  0  0
    0.0000    0.0000    0.0000 C   0  0  0  0  0  0  0  0  0  0  0  0
    0.0000    0.0000    0.0000 C   0  0  0  0  0  0  0  0  0  0  0  0
    0.0000    0.0000    0.0000 C   0  0  0  0  0  0  0  0  0  0  0  0
    0.0000    0.0000    0.0000 O   0  0  0  0  0  0  0  0  0  0  0  0
    0.0000    0.0000    0.0000 C   0  0  0  0  0  0  0  0  0  0  0  0
    0.0000    0.0000    0.0000 C   0  0  0  0  0  0  0  0  0  0  0  0
    0.0000    0.0000    0.0000 C   0  0  0  0  0  0  0  0  0  0  0  0
    0.0000    0.0000    0.0000 C   0  0  0  0  0  0  0  0  0  0  0  0
    0.0000    0.0000    0.0000 C   0  0  0  0  0  0  0  0  0  0  0  0
    0.0000    0.0000    0.0000 C   0  0  0  0  0  0  0  0  0  0  0  0
    0.0000    0.0000    0.0000 C   0  0  0  0  0  0  0  0  0  0  0  0
    0.0000    0.0000    0.0000 C   0  0  0  0  0  0  0  0  0  0  0  0
    0.0000    0.0000    0.0000 C   0  0  0  0  0  0  0  0  0  0  0  0
    0.0000    0.0000    0.0000 C   0  0  0  0  0  0  0  0  0  0  0  0
    0.0000    0.0000    0.0000 N   0  0  0  0  0  0  0  0  0  0  0  0
    0.0000    0.0000    0.0000 C   0  0  0  0  0  0  0  0  0  0  0  0
    0.0000    0.0000    0.0000 C   0  0  0  0  0  0  0  0  0  0  0  0
    0.0000    0.0000    0.0000 C   0  0  0  0  0  0  0  0  0  0  0  0
    0.0000    0.0000    0.0000 C   0  0  0  0  0  0  0  0  0  0  0  0
    0.0000    0.0000    0.0000 C   0  0  0  0  0  0  0  0  0  0  0  0
    0.0000    0.0000    0.0000 F   0  0  0  0  0  0  0  0  0  0  0  0
    0.0000    0.0000    0.0000 C   0  0  0  0  0  0  0  0  0  0  0  0
    0.0000    0.0000    0.0000 C   0  0  0  0  0  0  0  0  0  0  0  0
    0.0000    0.0000    0.0000 C   0  0  0  0  0  0  0  0  0  0  0  0
    0.0000    0.0000    0.0000 C   0  0  0  0  0  0  0  0  0  0  0  0
    0.0000    0.0000    0.0000 C   0  0  0  0  0  0  0  0  0  0  0  0
    0.0000    0.0000    0.0000 C   0  0  0  0  0  0  0  0  0  0  0  0
    0.0000    0.0000    0.0000 C   0  0  0  0  0  0  0  0  0  0  0  0
    0.0000    0.0000    0.0000 C   0  0  0  0  0  0  0  0  0  0  0  0
    0.0000    0.0000    0.0000 N   0  0  0  0  0  0  0  0  0  0  0  0
    0.0000    0.0000    0.0000 C   0  0  0  0  0  0  0  0  0  0  0  0
    0.0000    0.0000    0.0000 O   0  0  0  0  0  0  0  0  0  0  0  0
    0.0000    0.0000    0.0000 O   0  0  0  0  0  0  0  0  0  0  0  0
    0.0000    0.0000    0.0000 C   0  0  0  0  0  0  0  0  0  0  0  0
    0.0000    0.0000    0.0000 C   0  0  0  0  0  0  0  0  0  0  0  0
    0.0000    0.0000    0.0000 C   0  0  0  0  0  0  0  0  0  0  0  0
  1  2  1  0
  2  3  1  0
  3  4  1  0
  4  5  1  0
  3  6  1  0
  6  7  2  0
  6  8  1  0
  8  9  2  0
  9 10  1  0
 10 11  2  0
 11 12  1  0
 12 13  2  0
 11 14  1  0
 14 15  2  3
 15 16  1  0
 16 17  1  0
 17 18  1  0
 18 19  1  0
 19 20  1  0
 20 21  2  0
 21 22  1  0
 22 23  2  0
 23 24  1  0
 23 25  1  0
 25 26  2  0
 18 27  1  0
 27 28  1  0
 14 29  1  0
 29 30  2  0
 30 31  1  0
 31 32  2  0
 32 33  1  0
 33 34  1  0
 34 35  2  0
 34 36  1  0
 36 37  1  0
 32 38  1  0
 38 39  2  0
 13  8  1  0
 28 15  1  0
 26 20  1  0
 39 29  1  0
M  END
>  <pIC50>  (739) 
6.31

>  <ChEMBL_ID>  (739) 
CHEMBL1946024

>  <document_journal>  (739) 
Bioorg. Med. Chem. Lett.

>  <bao_endpoint>  (739) 
BAO_0000190

>  <potential_duplicate>  (739) 
False

>  <uo_units>  (739) 
UO_0000065

>  <canonical_smiles>  (739) 
CCN(CC)C(=O)c1ccc(cc1)C(=C2CCN(Cc3ccc(F)cc3)CC2)c4ccc(NC(=O)OC)cc4

>  <parent_molecule_chembl_id>  (739) 
CHEMBL1946024

>  <assay_type>  (739) 
B

>  <src_id>  (739) 
1

>  <ligand_efficiency>  (739) 
{u'le': u'0.22', u'bei': u'11.91', u'sei': u'10.2', u'lle': u'0.44'}

>  <standard_flag>  (739) 
True

>  <molecule_chembl_id>  (739) 
CHEMBL1946024

>  <target_organism>  (739) 
Homo sapiens

>  <standard_units>  (739) 
nM

>  <record_id>  (739) 
1575211

>  <document_chembl_id>  (739) 
CHEMBL1944587

>  <bao_format>  (739) 
BAO_0000219

>  <data_validity_description>  (739) 
None

>  <activity_id>  (739) 
8021431

>  <standard_type>  (739) 
IC50

>  <target_chembl_id>  (739) 
CHEMBL233

>  <data_validity_comment>  (739) 
None

>  <published_value>  (739) 
490

>  <document_year>  (739) 
2012

>  <target_pref_name>  (739) 
Mu opioid receptor

>  <assay_chembl_id>  (739) 
CHEMBL1947874

>  <standard_relation>  (739) 
=

>  <assay_description>  (739) 
Displacement of radiolabeled FK33-824 from mu opioid receptor expressed in HEK293 cell membranes

>  <published_relation>  (739) 
=

>  <standard_value>  (739) 
490

>  <qudt_units>  (739) 
http://www.openphacts.org/units/Nanomolar

>  <target_tax_id>  (739) 
9606

>  <bao_label>  (739) 
cell-based format

>  <published_units>  (739) 
nM

>  <pchembl_value>  (739) 
6.31

>  <published_type>  (739) 
IC50

>  <activity_comment>  (739) 
None

$$$$

     RDKit          

 36 40  0  0  0  0  0  0  0  0999 V2000
    0.0000    0.0000    0.0000 C   0  0  0  0  0  0  0  0  0  0  0  0
    0.0000    0.0000    0.0000 C   0  0  0  0  0  0  0  0  0  0  0  0
    0.0000    0.0000    0.0000 N   0  0  0  0  0  0  0  0  0  0  0  0
    0.0000    0.0000    0.0000 C   0  0  0  0  0  0  0  0  0  0  0  0
    0.0000    0.0000    0.0000 C   0  0  0  0  0  0  0  0  0  0  0  0
    0.0000    0.0000    0.0000 C   0  0  0  0  0  0  0  0  0  0  0  0
    0.0000    0.0000    0.0000 O   0  0  0  0  0  0  0  0  0  0  0  0
    0.0000    0.0000    0.0000 C   0  0  0  0  0  0  0  0  0  0  0  0
    0.0000    0.0000    0.0000 C   0  0  0  0  0  0  0  0  0  0  0  0
    0.0000    0.0000    0.0000 C   0  0  0  0  0  0  0  0  0  0  0  0
    0.0000    0.0000    0.0000 C   0  0  0  0  0  0  0  0  0  0  0  0
    0.0000    0.0000    0.0000 C   0  0  0  0  0  0  0  0  0  0  0  0
    0.0000    0.0000    0.0000 C   0  0  0  0  0  0  0  0  0  0  0  0
    0.0000    0.0000    0.0000 C   0  0  0  0  0  0  0  0  0  0  0  0
    0.0000    0.0000    0.0000 C   0  0  0  0  0  0  0  0  0  0  0  0
    0.0000    0.0000    0.0000 C   0  0  0  0  0  0  0  0  0  0  0  0
    0.0000    0.0000    0.0000 C   0  0  0  0  0  0  0  0  0  0  0  0
    0.0000    0.0000    0.0000 N   0  0  0  0  0  0  0  0  0  0  0  0
    0.0000    0.0000    0.0000 C   0  0  0  0  0  0  0  0  0  0  0  0
    0.0000    0.0000    0.0000 C   0  0  0  0  0  0  0  0  0  0  0  0
    0.0000    0.0000    0.0000 C   0  0  0  0  0  0  0  0  0  0  0  0
    0.0000    0.0000    0.0000 S   0  0  0  0  0  0  0  0  0  0  0  0
    0.0000    0.0000    0.0000 C   0  0  0  0  0  0  0  0  0  0  0  0
    0.0000    0.0000    0.0000 N   0  0  0  0  0  0  0  0  0  0  0  0
    0.0000    0.0000    0.0000 C   0  0  0  0  0  0  0  0  0  0  0  0
    0.0000    0.0000    0.0000 C   0  0  0  0  0  0  0  0  0  0  0  0
    0.0000    0.0000    0.0000 C   0  0  0  0  0  0  0  0  0  0  0  0
    0.0000    0.0000    0.0000 C   0  0  0  0  0  0  0  0  0  0  0  0
    0.0000    0.0000    0.0000 C   0  0  0  0  0  0  0  0  0  0  0  0
    0.0000    0.0000    0.0000 C   0  0  0  0  0  0  0  0  0  0  0  0
    0.0000    0.0000    0.0000 C   0  0  0  0  0  0  0  0  0  0  0  0
    0.0000    0.0000    0.0000 C   0  0  0  0  0  0  0  0  0  0  0  0
    0.0000    0.0000    0.0000 C   0  0  0  0  0  0  0  0  0  0  0  0
    0.0000    0.0000    0.0000 C   0  0  0  0  0  0  0  0  0  0  0  0
    0.0000    0.0000    0.0000 N   0  0  0  0  0  0  0  0  0  0  0  0
    0.0000    0.0000    0.0000 C   0  0  0  0  0  0  0  0  0  0  0  0
  1  2  1  0
  2  3  1  0
  3  4  1  0
  4  5  1  0
  3  6  1  0
  6  7  2  0
  6  8  1  0
  8  9  2  0
  9 10  1  0
 10 11  2  0
 11 12  1  0
 12 13  2  0
 11 14  1  0
 14 15  2  3
 15 16  1  0
 16 17  1  0
 17 18  1  0
 18 19  1  0
 19 20  1  0
 20 21  2  0
 21 22  1  0
 22 23  1  0
 23 24  2  0
 18 25  1  0
 25 26  1  0
 14 27  1  0
 27 28  2  0
 28 29  1  0
 29 30  2  0
 30 31  1  0
 31 32  2  0
 32 33  1  0
 33 34  2  0
 34 35  1  0
 35 36  2  0
 13  8  1  0
 26 15  1  0
 24 20  1  0
 36 27  1  0
 36 31  1  0
M  END
>  <pIC50>  (740) 
6.75

>  <ChEMBL_ID>  (740) 
CHEMBL1946025

>  <document_journal>  (740) 
Bioorg. Med. Chem. Lett.

>  <bao_endpoint>  (740) 
BAO_0000190

>  <potential_duplicate>  (740) 
False

>  <uo_units>  (740) 
UO_0000065

>  <canonical_smiles>  (740) 
CCN(CC)C(=O)c1ccc(cc1)C(=C2CCN(Cc3cscn3)CC2)c4cccc5cccnc45

>  <parent_molecule_chembl_id>  (740) 
CHEMBL1946025

>  <assay_type>  (740) 
B

>  <src_id>  (740) 
1

>  <ligand_efficiency>  (740) 
{u'le': u'0.26', u'bei': u'13.58', u'sei': u'8.7', u'lle': u'1.98'}

>  <standard_flag>  (740) 
True

>  <molecule_chembl_id>  (740) 
CHEMBL1946025

>  <target_organism>  (740) 
Homo sapiens

>  <standard_units>  (740) 
nM

>  <record_id>  (740) 
1575212

>  <document_chembl_id>  (740) 
CHEMBL1944587

>  <bao_format>  (740) 
BAO_0000219

>  <data_validity_description>  (740) 
None

>  <activity_id>  (740) 
8021471

>  <standard_type>  (740) 
IC50

>  <target_chembl_id>  (740) 
CHEMBL233

>  <data_validity_comment>  (740) 
None

>  <published_value>  (740) 
180

>  <document_year>  (740) 
2012

>  <target_pref_name>  (740) 
Mu opioid receptor

>  <assay_chembl_id>  (740) 
CHEMBL1947874

>  <standard_relation>  (740) 
=

>  <assay_description>  (740) 
Displacement of radiolabeled FK33-824 from mu opioid receptor expressed in HEK293 cell membranes

>  <published_relation>  (740) 
=

>  <standard_value>  (740) 
180

>  <qudt_units>  (740) 
http://www.openphacts.org/units/Nanomolar

>  <target_tax_id>  (740) 
9606

>  <bao_label>  (740) 
cell-based format

>  <published_units>  (740) 
nM

>  <pchembl_value>  (740) 
6.75

>  <published_type>  (740) 
IC50

>  <activity_comment>  (740) 
None

$$$$

     RDKit          

 36 41  0  0  0  0  0  0  0  0999 V2000
    0.0000    0.0000    0.0000 O   0  0  0  0  0  0  0  0  0  0  0  0
    0.0000    0.0000    0.0000 C   0  0  0  0  0  0  0  0  0  0  0  0
    0.0000    0.0000    0.0000 N   0  0  0  0  0  0  0  0  0  0  0  0
    0.0000    0.0000    0.0000 C   0  0  0  0  0  0  0  0  0  0  0  0
    0.0000    0.0000    0.0000 C   0  0  0  0  0  0  0  0  0  0  0  0
    0.0000    0.0000    0.0000 C   0  0  0  0  0  0  0  0  0  0  0  0
    0.0000    0.0000    0.0000 C   0  0  0  0  0  0  0  0  0  0  0  0
    0.0000    0.0000    0.0000 C   0  0  0  0  0  0  0  0  0  0  0  0
    0.0000    0.0000    0.0000 C   0  0  0  0  0  0  0  0  0  0  0  0
    0.0000    0.0000    0.0000 C   0  0  0  0  0  0  0  0  0  0  0  0
    0.0000    0.0000    0.0000 C   0  0  0  0  0  0  0  0  0  0  0  0
    0.0000    0.0000    0.0000 C   0  0  0  0  0  0  0  0  0  0  0  0
    0.0000    0.0000    0.0000 C   0  0  0  0  0  0  0  0  0  0  0  0
    0.0000    0.0000    0.0000 C   0  0  0  0  0  0  0  0  0  0  0  0
    0.0000    0.0000    0.0000 C   0  0  0  0  0  0  0  0  0  0  0  0
    0.0000    0.0000    0.0000 C   0  0  0  0  0  0  0  0  0  0  0  0
    0.0000    0.0000    0.0000 C   0  0  0  0  0  0  0  0  0  0  0  0
    0.0000    0.0000    0.0000 N   0  0  0  0  0  0  0  0  0  0  0  0
    0.0000    0.0000    0.0000 C   0  0  0  0  0  0  0  0  0  0  0  0
    0.0000    0.0000    0.0000 C   0  0  0  0  0  0  0  0  0  0  0  0
    0.0000    0.0000    0.0000 C   0  0  0  0  0  0  0  0  0  0  0  0
    0.0000    0.0000    0.0000 S   0  0  0  0  0  0  0  0  0  0  0  0
    0.0000    0.0000    0.0000 C   0  0  0  0  0  0  0  0  0  0  0  0
    0.0000    0.0000    0.0000 N   0  0  0  0  0  0  0  0  0  0  0  0
    0.0000    0.0000    0.0000 C   0  0  0  0  0  0  0  0  0  0  0  0
    0.0000    0.0000    0.0000 C   0  0  0  0  0  0  0  0  0  0  0  0
    0.0000    0.0000    0.0000 C   0  0  0  0  0  0  0  0  0  0  0  0
    0.0000    0.0000    0.0000 C   0  0  0  0  0  0  0  0  0  0  0  0
    0.0000    0.0000    0.0000 C   0  0  0  0  0  0  0  0  0  0  0  0
    0.0000    0.0000    0.0000 C   0  0  0  0  0  0  0  0  0  0  0  0
    0.0000    0.0000    0.0000 C   0  0  0  0  0  0  0  0  0  0  0  0
    0.0000    0.0000    0.0000 C   0  0  0  0  0  0  0  0  0  0  0  0
    0.0000    0.0000    0.0000 C   0  0  0  0  0  0  0  0  0  0  0  0
    0.0000    0.0000    0.0000 C   0  0  0  0  0  0  0  0  0  0  0  0
    0.0000    0.0000    0.0000 N   0  0  0  0  0  0  0  0  0  0  0  0
    0.0000    0.0000    0.0000 C   0  0  0  0  0  0  0  0  0  0  0  0
  1  2  2  0
  2  3  1  0
  3  4  1  0
  4  5  1  0
  5  6  1  0
  6  7  1  0
  2  8  1  0
  8  9  2  0
  9 10  1  0
 10 11  2  0
 11 12  1  0
 12 13  2  0
 11 14  1  0
 14 15  2  3
 15 16  1  0
 16 17  1  0
 17 18  1  0
 18 19  1  0
 19 20  1  0
 20 21  2  0
 21 22  1  0
 22 23  1  0
 23 24  2  0
 18 25  1  0
 25 26  1  0
 14 27  1  0
 27 28  2  0
 28 29  1  0
 29 30  2  0
 30 31  1  0
 31 32  2  0
 32 33  1  0
 33 34  2  0
 34 35  1  0
 35 36  2  0
  7  3  1  0
 13  8  1  0
 26 15  1  0
 24 20  1  0
 36 27  1  0
 36 31  1  0
M  END
>  <pIC50>  (741) 
6.85

>  <ChEMBL_ID>  (741) 
CHEMBL1946026

>  <document_journal>  (741) 
Bioorg. Med. Chem. Lett.

>  <bao_endpoint>  (741) 
BAO_0000190

>  <potential_duplicate>  (741) 
False

>  <uo_units>  (741) 
UO_0000065

>  <canonical_smiles>  (741) 
O=C(N1CCCC1)c2ccc(cc2)C(=C3CCN(Cc4cscn4)CC3)c5cccc6cccnc56

>  <parent_molecule_chembl_id>  (741) 
CHEMBL1946026

>  <assay_type>  (741) 
B

>  <src_id>  (741) 
1

>  <ligand_efficiency>  (741) 
{u'le': u'0.26', u'bei': u'13.86', u'sei': u'8.84', u'lle': u'2.33'}

>  <standard_flag>  (741) 
True

>  <molecule_chembl_id>  (741) 
CHEMBL1946026

>  <target_organism>  (741) 
Homo sapiens

>  <standard_units>  (741) 
nM

>  <record_id>  (741) 
1575213

>  <document_chembl_id>  (741) 
CHEMBL1944587

>  <bao_format>  (741) 
BAO_0000219

>  <data_validity_description>  (741) 
None

>  <activity_id>  (741) 
8021472

>  <standard_type>  (741) 
IC50

>  <target_chembl_id>  (741) 
CHEMBL233

>  <data_validity_comment>  (741) 
None

>  <published_value>  (741) 
140

>  <document_year>  (741) 
2012

>  <target_pref_name>  (741) 
Mu opioid receptor

>  <assay_chembl_id>  (741) 
CHEMBL1947874

>  <standard_relation>  (741) 
=

>  <assay_description>  (741) 
Displacement of radiolabeled FK33-824 from mu opioid receptor expressed in HEK293 cell membranes

>  <published_relation>  (741) 
=

>  <standard_value>  (741) 
140

>  <qudt_units>  (741) 
http://www.openphacts.org/units/Nanomolar

>  <target_tax_id>  (741) 
9606

>  <bao_label>  (741) 
cell-based format

>  <published_units>  (741) 
nM

>  <pchembl_value>  (741) 
6.85

>  <published_type>  (741) 
IC50

>  <activity_comment>  (741) 
None

$$$$

     RDKit          

 35 39  0  0  0  0  0  0  0  0999 V2000
    0.0000    0.0000    0.0000 C   0  0  0  0  0  0  0  0  0  0  0  0
    0.0000    0.0000    0.0000 C   0  0  0  0  0  0  0  0  0  0  0  0
    0.0000    0.0000    0.0000 N   0  0  0  0  0  0  0  0  0  0  0  0
    0.0000    0.0000    0.0000 C   0  0  0  0  0  0  0  0  0  0  0  0
    0.0000    0.0000    0.0000 C   0  0  0  0  0  0  0  0  0  0  0  0
    0.0000    0.0000    0.0000 O   0  0  0  0  0  0  0  0  0  0  0  0
    0.0000    0.0000    0.0000 C   0  0  0  0  0  0  0  0  0  0  0  0
    0.0000    0.0000    0.0000 C   0  0  0  0  0  0  0  0  0  0  0  0
    0.0000    0.0000    0.0000 C   0  0  0  0  0  0  0  0  0  0  0  0
    0.0000    0.0000    0.0000 C   0  0  0  0  0  0  0  0  0  0  0  0
    0.0000    0.0000    0.0000 C   0  0  0  0  0  0  0  0  0  0  0  0
    0.0000    0.0000    0.0000 C   0  0  0  0  0  0  0  0  0  0  0  0
    0.0000    0.0000    0.0000 C   0  0  0  0  0  0  0  0  0  0  0  0
    0.0000    0.0000    0.0000 C   0  0  0  0  0  0  0  0  0  0  0  0
    0.0000    0.0000    0.0000 C   0  0  0  0  0  0  0  0  0  0  0  0
    0.0000    0.0000    0.0000 C   0  0  0  0  0  0  0  0  0  0  0  0
    0.0000    0.0000    0.0000 N   0  0  0  0  0  0  0  0  0  0  0  0
    0.0000    0.0000    0.0000 C   0  0  0  0  0  0  0  0  0  0  0  0
    0.0000    0.0000    0.0000 C   0  0  0  0  0  0  0  0  0  0  0  0
    0.0000    0.0000    0.0000 C   0  0  0  0  0  0  0  0  0  0  0  0
    0.0000    0.0000    0.0000 S   0  0  0  0  0  0  0  0  0  0  0  0
    0.0000    0.0000    0.0000 C   0  0  0  0  0  0  0  0  0  0  0  0
    0.0000    0.0000    0.0000 N   0  0  0  0  0  0  0  0  0  0  0  0
    0.0000    0.0000    0.0000 C   0  0  0  0  0  0  0  0  0  0  0  0
    0.0000    0.0000    0.0000 C   0  0  0  0  0  0  0  0  0  0  0  0
    0.0000    0.0000    0.0000 C   0  0  0  0  0  0  0  0  0  0  0  0
    0.0000    0.0000    0.0000 C   0  0  0  0  0  0  0  0  0  0  0  0
    0.0000    0.0000    0.0000 C   0  0  0  0  0  0  0  0  0  0  0  0
    0.0000    0.0000    0.0000 C   0  0  0  0  0  0  0  0  0  0  0  0
    0.0000    0.0000    0.0000 C   0  0  0  0  0  0  0  0  0  0  0  0
    0.0000    0.0000    0.0000 C   0  0  0  0  0  0  0  0  0  0  0  0
    0.0000    0.0000    0.0000 C   0  0  0  0  0  0  0  0  0  0  0  0
    0.0000    0.0000    0.0000 C   0  0  0  0  0  0  0  0  0  0  0  0
    0.0000    0.0000    0.0000 N   0  0  0  0  0  0  0  0  0  0  0  0
    0.0000    0.0000    0.0000 C   0  0  0  0  0  0  0  0  0  0  0  0
  1  2  1  0
  2  3  1  0
  3  4  1  0
  3  5  1  0
  5  6  2  0
  5  7  1  0
  7  8  2  0
  8  9  1  0
  9 10  2  0
 10 11  1  0
 11 12  2  0
 10 13  1  0
 13 14  2  3
 14 15  1  0
 15 16  1  0
 16 17  1  0
 17 18  1  0
 18 19  1  0
 19 20  2  0
 20 21  1  0
 21 22  1  0
 22 23  2  0
 17 24  1  0
 24 25  1  0
 13 26  1  0
 26 27  2  0
 27 28  1  0
 28 29  2  0
 29 30  1  0
 30 31  2  0
 31 32  1  0
 32 33  2  0
 33 34  1  0
 34 35  2  0
 12  7  1  0
 25 14  1  0
 23 19  1  0
 35 26  1  0
 35 30  1  0
M  END
>  <pIC50>  (742) 
6.47

>  <ChEMBL_ID>  (742) 
CHEMBL1946027

>  <document_journal>  (742) 
Bioorg. Med. Chem. Lett.

>  <bao_endpoint>  (742) 
BAO_0000190

>  <potential_duplicate>  (742) 
False

>  <uo_units>  (742) 
UO_0000065

>  <canonical_smiles>  (742) 
CCN(C)C(=O)c1ccc(cc1)C(=C2CCN(Cc3cscn3)CC2)c4cccc5cccnc45

>  <parent_molecule_chembl_id>  (742) 
CHEMBL1946027

>  <assay_type>  (742) 
B

>  <src_id>  (742) 
1

>  <ligand_efficiency>  (742) 
{u'le': u'0.25', u'bei': u'13.4', u'sei': u'8.34', u'lle': u'2.06'}

>  <standard_flag>  (742) 
True

>  <molecule_chembl_id>  (742) 
CHEMBL1946027

>  <target_organism>  (742) 
Homo sapiens

>  <standard_units>  (742) 
nM

>  <record_id>  (742) 
1575214

>  <document_chembl_id>  (742) 
CHEMBL1944587

>  <bao_format>  (742) 
BAO_0000219

>  <data_validity_description>  (742) 
None

>  <activity_id>  (742) 
8021473

>  <standard_type>  (742) 
IC50

>  <target_chembl_id>  (742) 
CHEMBL233

>  <data_validity_comment>  (742) 
None

>  <published_value>  (742) 
340

>  <document_year>  (742) 
2012

>  <target_pref_name>  (742) 
Mu opioid receptor

>  <assay_chembl_id>  (742) 
CHEMBL1947874

>  <standard_relation>  (742) 
=

>  <assay_description>  (742) 
Displacement of radiolabeled FK33-824 from mu opioid receptor expressed in HEK293 cell membranes

>  <published_relation>  (742) 
=

>  <standard_value>  (742) 
340

>  <qudt_units>  (742) 
http://www.openphacts.org/units/Nanomolar

>  <target_tax_id>  (742) 
9606

>  <bao_label>  (742) 
cell-based format

>  <published_units>  (742) 
nM

>  <pchembl_value>  (742) 
6.47

>  <published_type>  (742) 
IC50

>  <activity_comment>  (742) 
None

$$$$

     RDKit          

 35 40  0  0  0  0  0  0  0  0999 V2000
    0.0000    0.0000    0.0000 O   0  0  0  0  0  0  0  0  0  0  0  0
    0.0000    0.0000    0.0000 C   0  0  0  0  0  0  0  0  0  0  0  0
    0.0000    0.0000    0.0000 N   0  0  0  0  0  0  0  0  0  0  0  0
    0.0000    0.0000    0.0000 C   0  0  0  0  0  0  0  0  0  0  0  0
    0.0000    0.0000    0.0000 C   0  0  0  0  0  0  0  0  0  0  0  0
    0.0000    0.0000    0.0000 C   0  0  0  0  0  0  0  0  0  0  0  0
    0.0000    0.0000    0.0000 C   0  0  0  0  0  0  0  0  0  0  0  0
    0.0000    0.0000    0.0000 C   0  0  0  0  0  0  0  0  0  0  0  0
    0.0000    0.0000    0.0000 C   0  0  0  0  0  0  0  0  0  0  0  0
    0.0000    0.0000    0.0000 C   0  0  0  0  0  0  0  0  0  0  0  0
    0.0000    0.0000    0.0000 C   0  0  0  0  0  0  0  0  0  0  0  0
    0.0000    0.0000    0.0000 C   0  0  0  0  0  0  0  0  0  0  0  0
    0.0000    0.0000    0.0000 C   0  0  0  0  0  0  0  0  0  0  0  0
    0.0000    0.0000    0.0000 C   0  0  0  0  0  0  0  0  0  0  0  0
    0.0000    0.0000    0.0000 C   0  0  0  0  0  0  0  0  0  0  0  0
    0.0000    0.0000    0.0000 C   0  0  0  0  0  0  0  0  0  0  0  0
    0.0000    0.0000    0.0000 N   0  0  0  0  0  0  0  0  0  0  0  0
    0.0000    0.0000    0.0000 C   0  0  0  0  0  0  0  0  0  0  0  0
    0.0000    0.0000    0.0000 C   0  0  0  0  0  0  0  0  0  0  0  0
    0.0000    0.0000    0.0000 C   0  0  0  0  0  0  0  0  0  0  0  0
    0.0000    0.0000    0.0000 S   0  0  0  0  0  0  0  0  0  0  0  0
    0.0000    0.0000    0.0000 C   0  0  0  0  0  0  0  0  0  0  0  0
    0.0000    0.0000    0.0000 N   0  0  0  0  0  0  0  0  0  0  0  0
    0.0000    0.0000    0.0000 C   0  0  0  0  0  0  0  0  0  0  0  0
    0.0000    0.0000    0.0000 C   0  0  0  0  0  0  0  0  0  0  0  0
    0.0000    0.0000    0.0000 C   0  0  0  0  0  0  0  0  0  0  0  0
    0.0000    0.0000    0.0000 C   0  0  0  0  0  0  0  0  0  0  0  0
    0.0000    0.0000    0.0000 C   0  0  0  0  0  0  0  0  0  0  0  0
    0.0000    0.0000    0.0000 C   0  0  0  0  0  0  0  0  0  0  0  0
    0.0000    0.0000    0.0000 C   0  0  0  0  0  0  0  0  0  0  0  0
    0.0000    0.0000    0.0000 C   0  0  0  0  0  0  0  0  0  0  0  0
    0.0000    0.0000    0.0000 C   0  0  0  0  0  0  0  0  0  0  0  0
    0.0000    0.0000    0.0000 C   0  0  0  0  0  0  0  0  0  0  0  0
    0.0000    0.0000    0.0000 N   0  0  0  0  0  0  0  0  0  0  0  0
    0.0000    0.0000    0.0000 C   0  0  0  0  0  0  0  0  0  0  0  0
  1  2  2  0
  2  3  1  0
  3  4  1  0
  4  5  1  0
  5  6  1  0
  2  7  1  0
  7  8  2  0
  8  9  1  0
  9 10  2  0
 10 11  1  0
 11 12  2  0
 10 13  1  0
 13 14  2  3
 14 15  1  0
 15 16  1  0
 16 17  1  0
 17 18  1  0
 18 19  1  0
 19 20  2  0
 20 21  1  0
 21 22  1  0
 22 23  2  0
 17 24  1  0
 24 25  1  0
 13 26  1  0
 26 27  2  0
 27 28  1  0
 28 29  2  0
 29 30  1  0
 30 31  2  0
 31 32  1  0
 32 33  2  0
 33 34  1  0
 34 35  2  0
  6  3  1  0
 12  7  1  0
 25 14  1  0
 23 19  1  0
 35 26  1  0
 35 30  1  0
M  END
>  <pIC50>  (743) 
6.48

>  <ChEMBL_ID>  (743) 
CHEMBL1946028

>  <document_journal>  (743) 
Bioorg. Med. Chem. Lett.

>  <bao_endpoint>  (743) 
BAO_0000190

>  <potential_duplicate>  (743) 
False

>  <uo_units>  (743) 
UO_0000065

>  <canonical_smiles>  (743) 
O=C(N1CCC1)c2ccc(cc2)C(=C3CCN(Cc4cscn4)CC3)c5cccc6cccnc56

>  <parent_molecule_chembl_id>  (743) 
CHEMBL1946028

>  <assay_type>  (743) 
B

>  <src_id>  (743) 
1

>  <ligand_efficiency>  (743) 
{u'le': u'0.25', u'bei': u'13.49', u'sei': u'8.36', u'lle': u'2.54'}

>  <standard_flag>  (743) 
True

>  <molecule_chembl_id>  (743) 
CHEMBL1946028

>  <target_organism>  (743) 
Homo sapiens

>  <standard_units>  (743) 
nM

>  <record_id>  (743) 
1575215

>  <document_chembl_id>  (743) 
CHEMBL1944587

>  <bao_format>  (743) 
BAO_0000219

>  <data_validity_description>  (743) 
None

>  <activity_id>  (743) 
8021474

>  <standard_type>  (743) 
IC50

>  <target_chembl_id>  (743) 
CHEMBL233

>  <data_validity_comment>  (743) 
None

>  <published_value>  (743) 
330

>  <document_year>  (743) 
2012

>  <target_pref_name>  (743) 
Mu opioid receptor

>  <assay_chembl_id>  (743) 
CHEMBL1947874

>  <standard_relation>  (743) 
=

>  <assay_description>  (743) 
Displacement of radiolabeled FK33-824 from mu opioid receptor expressed in HEK293 cell membranes

>  <published_relation>  (743) 
=

>  <standard_value>  (743) 
330

>  <qudt_units>  (743) 
http://www.openphacts.org/units/Nanomolar

>  <target_tax_id>  (743) 
9606

>  <bao_label>  (743) 
cell-based format

>  <published_units>  (743) 
nM

>  <pchembl_value>  (743) 
6.48

>  <published_type>  (743) 
IC50

>  <activity_comment>  (743) 
None

$$$$

     RDKit          

 34 38  0  0  0  0  0  0  0  0999 V2000
    0.0000    0.0000    0.0000 C   0  0  0  0  0  0  0  0  0  0  0  0
    0.0000    0.0000    0.0000 N   0  0  0  0  0  0  0  0  0  0  0  0
    0.0000    0.0000    0.0000 C   0  0  0  0  0  0  0  0  0  0  0  0
    0.0000    0.0000    0.0000 C   0  0  0  0  0  0  0  0  0  0  0  0
    0.0000    0.0000    0.0000 O   0  0  0  0  0  0  0  0  0  0  0  0
    0.0000    0.0000    0.0000 C   0  0  0  0  0  0  0  0  0  0  0  0
    0.0000    0.0000    0.0000 C   0  0  0  0  0  0  0  0  0  0  0  0
    0.0000    0.0000    0.0000 C   0  0  0  0  0  0  0  0  0  0  0  0
    0.0000    0.0000    0.0000 C   0  0  0  0  0  0  0  0  0  0  0  0
    0.0000    0.0000    0.0000 C   0  0  0  0  0  0  0  0  0  0  0  0
    0.0000    0.0000    0.0000 C   0  0  0  0  0  0  0  0  0  0  0  0
    0.0000    0.0000    0.0000 C   0  0  0  0  0  0  0  0  0  0  0  0
    0.0000    0.0000    0.0000 C   0  0  0  0  0  0  0  0  0  0  0  0
    0.0000    0.0000    0.0000 C   0  0  0  0  0  0  0  0  0  0  0  0
    0.0000    0.0000    0.0000 C   0  0  0  0  0  0  0  0  0  0  0  0
    0.0000    0.0000    0.0000 N   0  0  0  0  0  0  0  0  0  0  0  0
    0.0000    0.0000    0.0000 C   0  0  0  0  0  0  0  0  0  0  0  0
    0.0000    0.0000    0.0000 C   0  0  0  0  0  0  0  0  0  0  0  0
    0.0000    0.0000    0.0000 C   0  0  0  0  0  0  0  0  0  0  0  0
    0.0000    0.0000    0.0000 S   0  0  0  0  0  0  0  0  0  0  0  0
    0.0000    0.0000    0.0000 C   0  0  0  0  0  0  0  0  0  0  0  0
    0.0000    0.0000    0.0000 N   0  0  0  0  0  0  0  0  0  0  0  0
    0.0000    0.0000    0.0000 C   0  0  0  0  0  0  0  0  0  0  0  0
    0.0000    0.0000    0.0000 C   0  0  0  0  0  0  0  0  0  0  0  0
    0.0000    0.0000    0.0000 C   0  0  0  0  0  0  0  0  0  0  0  0
    0.0000    0.0000    0.0000 C   0  0  0  0  0  0  0  0  0  0  0  0
    0.0000    0.0000    0.0000 C   0  0  0  0  0  0  0  0  0  0  0  0
    0.0000    0.0000    0.0000 C   0  0  0  0  0  0  0  0  0  0  0  0
    0.0000    0.0000    0.0000 C   0  0  0  0  0  0  0  0  0  0  0  0
    0.0000    0.0000    0.0000 C   0  0  0  0  0  0  0  0  0  0  0  0
    0.0000    0.0000    0.0000 C   0  0  0  0  0  0  0  0  0  0  0  0
    0.0000    0.0000    0.0000 C   0  0  0  0  0  0  0  0  0  0  0  0
    0.0000    0.0000    0.0000 N   0  0  0  0  0  0  0  0  0  0  0  0
    0.0000    0.0000    0.0000 C   0  0  0  0  0  0  0  0  0  0  0  0
  1  2  1  0
  2  3  1  0
  2  4  1  0
  4  5  2  0
  4  6  1  0
  6  7  2  0
  7  8  1  0
  8  9  2  0
  9 10  1  0
 10 11  2  0
  9 12  1  0
 12 13  2  3
 13 14  1  0
 14 15  1  0
 15 16  1  0
 16 17  1  0
 17 18  1  0
 18 19  2  0
 19 20  1  0
 20 21  1  0
 21 22  2  0
 16 23  1  0
 23 24  1  0
 12 25  1  0
 25 26  2  0
 26 27  1  0
 27 28  2  0
 28 29  1  0
 29 30  2  0
 30 31  1  0
 31 32  2  0
 32 33  1  0
 33 34  2  0
 11  6  1  0
 24 13  1  0
 22 18  1  0
 34 25  1  0
 34 29  1  0
M  END
>  <pIC50>  (744) 
6.46

>  <ChEMBL_ID>  (744) 
CHEMBL1946029

>  <document_journal>  (744) 
Bioorg. Med. Chem. Lett.

>  <bao_endpoint>  (744) 
BAO_0000190

>  <potential_duplicate>  (744) 
False

>  <uo_units>  (744) 
UO_0000065

>  <canonical_smiles>  (744) 
CN(C)C(=O)c1ccc(cc1)C(=C2CCN(Cc3cscn3)CC2)c4cccc5cccnc45

>  <parent_molecule_chembl_id>  (744) 
CHEMBL1946029

>  <assay_type>  (744) 
B

>  <src_id>  (744) 
1

>  <ligand_efficiency>  (744) 
{u'le': u'0.26', u'bei': u'13.78', u'sei': u'8.32', u'lle': u'2.4'}

>  <standard_flag>  (744) 
True

>  <molecule_chembl_id>  (744) 
CHEMBL1946029

>  <target_organism>  (744) 
Homo sapiens

>  <standard_units>  (744) 
nM

>  <record_id>  (744) 
1575216

>  <document_chembl_id>  (744) 
CHEMBL1944587

>  <bao_format>  (744) 
BAO_0000219

>  <data_validity_description>  (744) 
None

>  <activity_id>  (744) 
8021475

>  <standard_type>  (744) 
IC50

>  <target_chembl_id>  (744) 
CHEMBL233

>  <data_validity_comment>  (744) 
None

>  <published_value>  (744) 
350

>  <document_year>  (744) 
2012

>  <target_pref_name>  (744) 
Mu opioid receptor

>  <assay_chembl_id>  (744) 
CHEMBL1947874

>  <standard_relation>  (744) 
=

>  <assay_description>  (744) 
Displacement of radiolabeled FK33-824 from mu opioid receptor expressed in HEK293 cell membranes

>  <published_relation>  (744) 
=

>  <standard_value>  (744) 
350

>  <qudt_units>  (744) 
http://www.openphacts.org/units/Nanomolar

>  <target_tax_id>  (744) 
9606

>  <bao_label>  (744) 
cell-based format

>  <published_units>  (744) 
nM

>  <pchembl_value>  (744) 
6.46

>  <published_type>  (744) 
IC50

>  <activity_comment>  (744) 
None

$$$$

     RDKit          

 37 42  0  0  0  0  0  0  0  0999 V2000
    0.0000    0.0000    0.0000 O   0  0  0  0  0  0  0  0  0  0  0  0
    0.0000    0.0000    0.0000 C   0  0  0  0  0  0  0  0  0  0  0  0
    0.0000    0.0000    0.0000 N   0  0  0  0  0  0  0  0  0  0  0  0
    0.0000    0.0000    0.0000 C   0  0  0  0  0  0  0  0  0  0  0  0
    0.0000    0.0000    0.0000 C   0  0  0  0  0  0  0  0  0  0  0  0
    0.0000    0.0000    0.0000 O   0  0  0  0  0  0  0  0  0  0  0  0
    0.0000    0.0000    0.0000 C   0  0  0  0  0  0  0  0  0  0  0  0
    0.0000    0.0000    0.0000 C   0  0  0  0  0  0  0  0  0  0  0  0
    0.0000    0.0000    0.0000 C   0  0  0  0  0  0  0  0  0  0  0  0
    0.0000    0.0000    0.0000 C   0  0  0  0  0  0  0  0  0  0  0  0
    0.0000    0.0000    0.0000 C   0  0  0  0  0  0  0  0  0  0  0  0
    0.0000    0.0000    0.0000 C   0  0  0  0  0  0  0  0  0  0  0  0
    0.0000    0.0000    0.0000 C   0  0  0  0  0  0  0  0  0  0  0  0
    0.0000    0.0000    0.0000 C   0  0  0  0  0  0  0  0  0  0  0  0
    0.0000    0.0000    0.0000 C   0  0  0  0  0  0  0  0  0  0  0  0
    0.0000    0.0000    0.0000 C   0  0  0  0  0  0  0  0  0  0  0  0
    0.0000    0.0000    0.0000 C   0  0  0  0  0  0  0  0  0  0  0  0
    0.0000    0.0000    0.0000 C   0  0  0  0  0  0  0  0  0  0  0  0
    0.0000    0.0000    0.0000 N   0  0  0  0  0  0  0  0  0  0  0  0
    0.0000    0.0000    0.0000 C   0  0  0  0  0  0  0  0  0  0  0  0
    0.0000    0.0000    0.0000 C   0  0  0  0  0  0  0  0  0  0  0  0
    0.0000    0.0000    0.0000 C   0  0  0  0  0  0  0  0  0  0  0  0
    0.0000    0.0000    0.0000 S   0  0  0  0  0  0  0  0  0  0  0  0
    0.0000    0.0000    0.0000 C   0  0  0  0  0  0  0  0  0  0  0  0
    0.0000    0.0000    0.0000 N   0  0  0  0  0  0  0  0  0  0  0  0
    0.0000    0.0000    0.0000 C   0  0  0  0  0  0  0  0  0  0  0  0
    0.0000    0.0000    0.0000 C   0  0  0  0  0  0  0  0  0  0  0  0
    0.0000    0.0000    0.0000 C   0  0  0  0  0  0  0  0  0  0  0  0
    0.0000    0.0000    0.0000 C   0  0  0  0  0  0  0  0  0  0  0  0
    0.0000    0.0000    0.0000 C   0  0  0  0  0  0  0  0  0  0  0  0
    0.0000    0.0000    0.0000 C   0  0  0  0  0  0  0  0  0  0  0  0
    0.0000    0.0000    0.0000 C   0  0  0  0  0  0  0  0  0  0  0  0
    0.0000    0.0000    0.0000 C   0  0  0  0  0  0  0  0  0  0  0  0
    0.0000    0.0000    0.0000 C   0  0  0  0  0  0  0  0  0  0  0  0
    0.0000    0.0000    0.0000 C   0  0  0  0  0  0  0  0  0  0  0  0
    0.0000    0.0000    0.0000 N   0  0  0  0  0  0  0  0  0  0  0  0
    0.0000    0.0000    0.0000 C   0  0  0  0  0  0  0  0  0  0  0  0
  1  2  2  0
  2  3  1  0
  3  4  1  0
  4  5  1  0
  5  6  1  0
  6  7  1  0
  7  8  1  0
  2  9  1  0
  9 10  2  0
 10 11  1  0
 11 12  2  0
 12 13  1  0
 13 14  2  0
 12 15  1  0
 15 16  2  3
 16 17  1  0
 17 18  1  0
 18 19  1  0
 19 20  1  0
 20 21  1  0
 21 22  2  0
 22 23  1  0
 23 24  1  0
 24 25  2  0
 19 26  1  0
 26 27  1  0
 15 28  1  0
 28 29  2  0
 29 30  1  0
 30 31  2  0
 31 32  1  0
 32 33  2  0
 33 34  1  0
 34 35  2  0
 35 36  1  0
 36 37  2  0
  8  3  1  0
 14  9  1  0
 27 16  1  0
 25 21  1  0
 37 28  1  0
 37 32  1  0
M  END
>  <pIC50>  (745) 
6.32

>  <ChEMBL_ID>  (745) 
CHEMBL1946615

>  <document_journal>  (745) 
Bioorg. Med. Chem. Lett.

>  <bao_endpoint>  (745) 
BAO_0000190

>  <potential_duplicate>  (745) 
False

>  <uo_units>  (745) 
UO_0000065

>  <canonical_smiles>  (745) 
O=C(N1CCOCC1)c2ccc(cc2)C(=C3CCN(Cc4cscn4)CC3)c5cccc6cccnc56

>  <parent_molecule_chembl_id>  (745) 
CHEMBL1946615

>  <assay_type>  (745) 
B

>  <src_id>  (745) 
1

>  <ligand_efficiency>  (745) 
{u'le': u'0.23', u'bei': u'12.37', u'sei': u'7.28', u'lle': u'2.57'}

>  <standard_flag>  (745) 
True

>  <molecule_chembl_id>  (745) 
CHEMBL1946615

>  <target_organism>  (745) 
Homo sapiens

>  <standard_units>  (745) 
nM

>  <record_id>  (745) 
1575953

>  <document_chembl_id>  (745) 
CHEMBL1944587

>  <bao_format>  (745) 
BAO_0000219

>  <data_validity_description>  (745) 
None

>  <activity_id>  (745) 
8021476

>  <standard_type>  (745) 
IC50

>  <target_chembl_id>  (745) 
CHEMBL233

>  <data_validity_comment>  (745) 
None

>  <published_value>  (745) 
480

>  <document_year>  (745) 
2012

>  <target_pref_name>  (745) 
Mu opioid receptor

>  <assay_chembl_id>  (745) 
CHEMBL1947874

>  <standard_relation>  (745) 
=

>  <assay_description>  (745) 
Displacement of radiolabeled FK33-824 from mu opioid receptor expressed in HEK293 cell membranes

>  <published_relation>  (745) 
=

>  <standard_value>  (745) 
480

>  <qudt_units>  (745) 
http://www.openphacts.org/units/Nanomolar

>  <target_tax_id>  (745) 
9606

>  <bao_label>  (745) 
cell-based format

>  <published_units>  (745) 
nM

>  <pchembl_value>  (745) 
6.32

>  <published_type>  (745) 
IC50

>  <activity_comment>  (745) 
None

$$$$

     RDKit          

 38 43  0  0  0  0  0  0  0  0999 V2000
    0.0000    0.0000    0.0000 C   0  0  0  0  0  0  0  0  0  0  0  0
    0.0000    0.0000    0.0000 N   0  0  0  0  0  0  0  0  0  0  0  0
    0.0000    0.0000    0.0000 C   0  0  0  0  0  0  0  0  0  0  0  0
    0.0000    0.0000    0.0000 C   0  0  0  0  0  0  0  0  0  0  0  0
    0.0000    0.0000    0.0000 N   0  0  0  0  0  0  0  0  0  0  0  0
    0.0000    0.0000    0.0000 C   0  0  0  0  0  0  0  0  0  0  0  0
    0.0000    0.0000    0.0000 C   0  0  0  0  0  0  0  0  0  0  0  0
    0.0000    0.0000    0.0000 C   0  0  0  0  0  0  0  0  0  0  0  0
    0.0000    0.0000    0.0000 O   0  0  0  0  0  0  0  0  0  0  0  0
    0.0000    0.0000    0.0000 C   0  0  0  0  0  0  0  0  0  0  0  0
    0.0000    0.0000    0.0000 C   0  0  0  0  0  0  0  0  0  0  0  0
    0.0000    0.0000    0.0000 C   0  0  0  0  0  0  0  0  0  0  0  0
    0.0000    0.0000    0.0000 C   0  0  0  0  0  0  0  0  0  0  0  0
    0.0000    0.0000    0.0000 C   0  0  0  0  0  0  0  0  0  0  0  0
    0.0000    0.0000    0.0000 C   0  0  0  0  0  0  0  0  0  0  0  0
    0.0000    0.0000    0.0000 C   0  0  0  0  0  0  0  0  0  0  0  0
    0.0000    0.0000    0.0000 C   0  0  0  0  0  0  0  0  0  0  0  0
    0.0000    0.0000    0.0000 C   0  0  0  0  0  0  0  0  0  0  0  0
    0.0000    0.0000    0.0000 C   0  0  0  0  0  0  0  0  0  0  0  0
    0.0000    0.0000    0.0000 N   0  0  0  0  0  0  0  0  0  0  0  0
    0.0000    0.0000    0.0000 C   0  0  0  0  0  0  0  0  0  0  0  0
    0.0000    0.0000    0.0000 C   0  0  0  0  0  0  0  0  0  0  0  0
    0.0000    0.0000    0.0000 C   0  0  0  0  0  0  0  0  0  0  0  0
    0.0000    0.0000    0.0000 S   0  0  0  0  0  0  0  0  0  0  0  0
    0.0000    0.0000    0.0000 C   0  0  0  0  0  0  0  0  0  0  0  0
    0.0000    0.0000    0.0000 N   0  0  0  0  0  0  0  0  0  0  0  0
    0.0000    0.0000    0.0000 C   0  0  0  0  0  0  0  0  0  0  0  0
    0.0000    0.0000    0.0000 C   0  0  0  0  0  0  0  0  0  0  0  0
    0.0000    0.0000    0.0000 C   0  0  0  0  0  0  0  0  0  0  0  0
    0.0000    0.0000    0.0000 C   0  0  0  0  0  0  0  0  0  0  0  0
    0.0000    0.0000    0.0000 C   0  0  0  0  0  0  0  0  0  0  0  0
    0.0000    0.0000    0.0000 C   0  0  0  0  0  0  0  0  0  0  0  0
    0.0000    0.0000    0.0000 C   0  0  0  0  0  0  0  0  0  0  0  0
    0.0000    0.0000    0.0000 C   0  0  0  0  0  0  0  0  0  0  0  0
    0.0000    0.0000    0.0000 C   0  0  0  0  0  0  0  0  0  0  0  0
    0.0000    0.0000    0.0000 C   0  0  0  0  0  0  0  0  0  0  0  0
    0.0000    0.0000    0.0000 N   0  0  0  0  0  0  0  0  0  0  0  0
    0.0000    0.0000    0.0000 C   0  0  0  0  0  0  0  0  0  0  0  0
  1  2  1  0
  2  3  1  0
  3  4  1  0
  4  5  1  0
  5  6  1  0
  6  7  1  0
  5  8  1  0
  8  9  2  0
  8 10  1  0
 10 11  2  0
 11 12  1  0
 12 13  2  0
 13 14  1  0
 14 15  2  0
 13 16  1  0
 16 17  2  3
 17 18  1  0
 18 19  1  0
 19 20  1  0
 20 21  1  0
 21 22  1  0
 22 23  2  0
 23 24  1  0
 24 25  1  0
 25 26  2  0
 20 27  1  0
 27 28  1  0
 16 29  1  0
 29 30  2  0
 30 31  1  0
 31 32  2  0
 32 33  1  0
 33 34  2  0
 34 35  1  0
 35 36  2  0
 36 37  1  0
 37 38  2  0
  7  2  1  0
 15 10  1  0
 28 17  1  0
 26 22  1  0
 38 29  1  0
 38 33  1  0
M  END
>  <pIC50>  (746) 
6.7

>  <ChEMBL_ID>  (746) 
CHEMBL1946616

>  <document_journal>  (746) 
Bioorg. Med. Chem. Lett.

>  <bao_endpoint>  (746) 
BAO_0000190

>  <potential_duplicate>  (746) 
False

>  <uo_units>  (746) 
UO_0000065

>  <canonical_smiles>  (746) 
CN1CCN(CC1)C(=O)c2ccc(cc2)C(=C3CCN(Cc4cscn4)CC3)c5cccc6cccnc56

>  <parent_molecule_chembl_id>  (746) 
CHEMBL1946616

>  <assay_type>  (746) 
B

>  <src_id>  (746) 
1

>  <ligand_efficiency>  (746) 
{u'le': u'0.24', u'bei': u'12.79', u'sei': u'8.29', u'lle': u'2.68'}

>  <standard_flag>  (746) 
True

>  <molecule_chembl_id>  (746) 
CHEMBL1946616

>  <target_organism>  (746) 
Homo sapiens

>  <standard_units>  (746) 
nM

>  <record_id>  (746) 
1575954

>  <document_chembl_id>  (746) 
CHEMBL1944587

>  <bao_format>  (746) 
BAO_0000219

>  <data_validity_description>  (746) 
None

>  <activity_id>  (746) 
8021477

>  <standard_type>  (746) 
IC50

>  <target_chembl_id>  (746) 
CHEMBL233

>  <data_validity_comment>  (746) 
None

>  <published_value>  (746) 
200

>  <document_year>  (746) 
2012

>  <target_pref_name>  (746) 
Mu opioid receptor

>  <assay_chembl_id>  (746) 
CHEMBL1947874

>  <standard_relation>  (746) 
=

>  <assay_description>  (746) 
Displacement of radiolabeled FK33-824 from mu opioid receptor expressed in HEK293 cell membranes

>  <published_relation>  (746) 
=

>  <standard_value>  (746) 
200

>  <qudt_units>  (746) 
http://www.openphacts.org/units/Nanomolar

>  <target_tax_id>  (746) 
9606

>  <bao_label>  (746) 
cell-based format

>  <published_units>  (746) 
nM

>  <pchembl_value>  (746) 
6.7

>  <published_type>  (746) 
IC50

>  <activity_comment>  (746) 
None

$$$$

     RDKit          

 38 43  0  0  0  0  0  0  0  0999 V2000
    0.0000    0.0000    0.0000 O   0  0  0  0  0  0  0  0  0  0  0  0
    0.0000    0.0000    0.0000 C   0  0  0  0  0  0  0  0  0  0  0  0
    0.0000    0.0000    0.0000 C   0  0  0  0  0  0  0  0  0  0  0  0
    0.0000    0.0000    0.0000 C   0  0  0  0  0  0  0  0  0  0  0  0
    0.0000    0.0000    0.0000 N   0  0  0  0  0  0  0  0  0  0  0  0
    0.0000    0.0000    0.0000 C   0  0  0  0  0  0  0  0  0  0  0  0
    0.0000    0.0000    0.0000 C   0  0  0  0  0  0  0  0  0  0  0  0
    0.0000    0.0000    0.0000 C   0  0  0  0  0  0  0  0  0  0  0  0
    0.0000    0.0000    0.0000 O   0  0  0  0  0  0  0  0  0  0  0  0
    0.0000    0.0000    0.0000 C   0  0  0  0  0  0  0  0  0  0  0  0
    0.0000    0.0000    0.0000 C   0  0  0  0  0  0  0  0  0  0  0  0
    0.0000    0.0000    0.0000 C   0  0  0  0  0  0  0  0  0  0  0  0
    0.0000    0.0000    0.0000 C   0  0  0  0  0  0  0  0  0  0  0  0
    0.0000    0.0000    0.0000 C   0  0  0  0  0  0  0  0  0  0  0  0
    0.0000    0.0000    0.0000 C   0  0  0  0  0  0  0  0  0  0  0  0
    0.0000    0.0000    0.0000 C   0  0  0  0  0  0  0  0  0  0  0  0
    0.0000    0.0000    0.0000 C   0  0  0  0  0  0  0  0  0  0  0  0
    0.0000    0.0000    0.0000 C   0  0  0  0  0  0  0  0  0  0  0  0
    0.0000    0.0000    0.0000 C   0  0  0  0  0  0  0  0  0  0  0  0
    0.0000    0.0000    0.0000 N   0  0  0  0  0  0  0  0  0  0  0  0
    0.0000    0.0000    0.0000 C   0  0  0  0  0  0  0  0  0  0  0  0
    0.0000    0.0000    0.0000 C   0  0  0  0  0  0  0  0  0  0  0  0
    0.0000    0.0000    0.0000 C   0  0  0  0  0  0  0  0  0  0  0  0
    0.0000    0.0000    0.0000 S   0  0  0  0  0  0  0  0  0  0  0  0
    0.0000    0.0000    0.0000 C   0  0  0  0  0  0  0  0  0  0  0  0
    0.0000    0.0000    0.0000 N   0  0  0  0  0  0  0  0  0  0  0  0
    0.0000    0.0000    0.0000 C   0  0  0  0  0  0  0  0  0  0  0  0
    0.0000    0.0000    0.0000 C   0  0  0  0  0  0  0  0  0  0  0  0
    0.0000    0.0000    0.0000 C   0  0  0  0  0  0  0  0  0  0  0  0
    0.0000    0.0000    0.0000 C   0  0  0  0  0  0  0  0  0  0  0  0
    0.0000    0.0000    0.0000 C   0  0  0  0  0  0  0  0  0  0  0  0
    0.0000    0.0000    0.0000 C   0  0  0  0  0  0  0  0  0  0  0  0
    0.0000    0.0000    0.0000 C   0  0  0  0  0  0  0  0  0  0  0  0
    0.0000    0.0000    0.0000 C   0  0  0  0  0  0  0  0  0  0  0  0
    0.0000    0.0000    0.0000 C   0  0  0  0  0  0  0  0  0  0  0  0
    0.0000    0.0000    0.0000 C   0  0  0  0  0  0  0  0  0  0  0  0
    0.0000    0.0000    0.0000 N   0  0  0  0  0  0  0  0  0  0  0  0
    0.0000    0.0000    0.0000 C   0  0  0  0  0  0  0  0  0  0  0  0
  1  2  1  0
  2  3  1  0
  3  4  1  0
  4  5  1  0
  5  6  1  0
  6  7  1  0
  5  8  1  0
  8  9  2  0
  8 10  1  0
 10 11  2  0
 11 12  1  0
 12 13  2  0
 13 14  1  0
 14 15  2  0
 13 16  1  0
 16 17  2  3
 17 18  1  0
 18 19  1  0
 19 20  1  0
 20 21  1  0
 21 22  1  0
 22 23  2  0
 23 24  1  0
 24 25  1  0
 25 26  2  0
 20 27  1  0
 27 28  1  0
 16 29  1  0
 29 30  2  0
 30 31  1  0
 31 32  2  0
 32 33  1  0
 33 34  2  0
 34 35  1  0
 35 36  2  0
 36 37  1  0
 37 38  2  0
  7  2  1  0
 15 10  1  0
 28 17  1  0
 26 22  1  0
 38 29  1  0
 38 33  1  0
M  END
>  <pIC50>  (747) 
6.66

>  <ChEMBL_ID>  (747) 
CHEMBL1946617

>  <document_journal>  (747) 
Bioorg. Med. Chem. Lett.

>  <bao_endpoint>  (747) 
BAO_0000190

>  <potential_duplicate>  (747) 
False

>  <uo_units>  (747) 
UO_0000065

>  <canonical_smiles>  (747) 
OC1CCN(CC1)C(=O)c2ccc(cc2)C(=C3CCN(Cc4cscn4)CC3)c5cccc6cccnc56

>  <parent_molecule_chembl_id>  (747) 
CHEMBL1946617

>  <assay_type>  (747) 
B

>  <src_id>  (747) 
1

>  <ligand_efficiency>  (747) 
{u'le': u'0.24', u'bei': u'12.69', u'sei': u'6.81', u'lle': u'3.17'}

>  <standard_flag>  (747) 
True

>  <molecule_chembl_id>  (747) 
CHEMBL1946617

>  <target_organism>  (747) 
Homo sapiens

>  <standard_units>  (747) 
nM

>  <record_id>  (747) 
1575955

>  <document_chembl_id>  (747) 
CHEMBL1944587

>  <bao_format>  (747) 
BAO_0000219

>  <data_validity_description>  (747) 
None

>  <activity_id>  (747) 
8021478

>  <standard_type>  (747) 
IC50

>  <target_chembl_id>  (747) 
CHEMBL233

>  <data_validity_comment>  (747) 
None

>  <published_value>  (747) 
220

>  <document_year>  (747) 
2012

>  <target_pref_name>  (747) 
Mu opioid receptor

>  <assay_chembl_id>  (747) 
CHEMBL1947874

>  <standard_relation>  (747) 
=

>  <assay_description>  (747) 
Displacement of radiolabeled FK33-824 from mu opioid receptor expressed in HEK293 cell membranes

>  <published_relation>  (747) 
=

>  <standard_value>  (747) 
220

>  <qudt_units>  (747) 
http://www.openphacts.org/units/Nanomolar

>  <target_tax_id>  (747) 
9606

>  <bao_label>  (747) 
cell-based format

>  <published_units>  (747) 
nM

>  <pchembl_value>  (747) 
6.66

>  <published_type>  (747) 
IC50

>  <activity_comment>  (747) 
None

$$$$

     RDKit          

 36 40  0  0  0  0  0  0  0  0999 V2000
    0.0000    0.0000    0.0000 C   0  0  0  0  0  0  0  0  0  0  0  0
    0.0000    0.0000    0.0000 N   0  0  0  0  0  0  0  0  0  0  0  0
    0.0000    0.0000    0.0000 C   0  0  0  0  0  0  0  0  0  0  0  0
    0.0000    0.0000    0.0000 C   0  0  0  0  0  0  0  0  0  0  0  0
    0.0000    0.0000    0.0000 O   0  0  0  0  0  0  0  0  0  0  0  0
    0.0000    0.0000    0.0000 C   0  0  0  0  0  0  0  0  0  0  0  0
    0.0000    0.0000    0.0000 O   0  0  0  0  0  0  0  0  0  0  0  0
    0.0000    0.0000    0.0000 C   0  0  0  0  0  0  0  0  0  0  0  0
    0.0000    0.0000    0.0000 C   0  0  0  0  0  0  0  0  0  0  0  0
    0.0000    0.0000    0.0000 C   0  0  0  0  0  0  0  0  0  0  0  0
    0.0000    0.0000    0.0000 C   0  0  0  0  0  0  0  0  0  0  0  0
    0.0000    0.0000    0.0000 C   0  0  0  0  0  0  0  0  0  0  0  0
    0.0000    0.0000    0.0000 C   0  0  0  0  0  0  0  0  0  0  0  0
    0.0000    0.0000    0.0000 C   0  0  0  0  0  0  0  0  0  0  0  0
    0.0000    0.0000    0.0000 C   0  0  0  0  0  0  0  0  0  0  0  0
    0.0000    0.0000    0.0000 C   0  0  0  0  0  0  0  0  0  0  0  0
    0.0000    0.0000    0.0000 C   0  0  0  0  0  0  0  0  0  0  0  0
    0.0000    0.0000    0.0000 N   0  0  0  0  0  0  0  0  0  0  0  0
    0.0000    0.0000    0.0000 C   0  0  0  0  0  0  0  0  0  0  0  0
    0.0000    0.0000    0.0000 C   0  0  0  0  0  0  0  0  0  0  0  0
    0.0000    0.0000    0.0000 C   0  0  0  0  0  0  0  0  0  0  0  0
    0.0000    0.0000    0.0000 S   0  0  0  0  0  0  0  0  0  0  0  0
    0.0000    0.0000    0.0000 C   0  0  0  0  0  0  0  0  0  0  0  0
    0.0000    0.0000    0.0000 N   0  0  0  0  0  0  0  0  0  0  0  0
    0.0000    0.0000    0.0000 C   0  0  0  0  0  0  0  0  0  0  0  0
    0.0000    0.0000    0.0000 C   0  0  0  0  0  0  0  0  0  0  0  0
    0.0000    0.0000    0.0000 C   0  0  0  0  0  0  0  0  0  0  0  0
    0.0000    0.0000    0.0000 C   0  0  0  0  0  0  0  0  0  0  0  0
    0.0000    0.0000    0.0000 C   0  0  0  0  0  0  0  0  0  0  0  0
    0.0000    0.0000    0.0000 C   0  0  0  0  0  0  0  0  0  0  0  0
    0.0000    0.0000    0.0000 C   0  0  0  0  0  0  0  0  0  0  0  0
    0.0000    0.0000    0.0000 C   0  0  0  0  0  0  0  0  0  0  0  0
    0.0000    0.0000    0.0000 C   0  0  0  0  0  0  0  0  0  0  0  0
    0.0000    0.0000    0.0000 C   0  0  0  0  0  0  0  0  0  0  0  0
    0.0000    0.0000    0.0000 N   0  0  0  0  0  0  0  0  0  0  0  0
    0.0000    0.0000    0.0000 C   0  0  0  0  0  0  0  0  0  0  0  0
  1  2  1  0
  2  3  1  0
  3  4  1  0
  4  5  1  0
  2  6  1  0
  6  7  2  0
  6  8  1  0
  8  9  2  0
  9 10  1  0
 10 11  2  0
 11 12  1  0
 12 13  2  0
 11 14  1  0
 14 15  2  3
 15 16  1  0
 16 17  1  0
 17 18  1  0
 18 19  1  0
 19 20  1  0
 20 21  2  0
 21 22  1  0
 22 23  1  0
 23 24  2  0
 18 25  1  0
 25 26  1  0
 14 27  1  0
 27 28  2  0
 28 29  1  0
 29 30  2  0
 30 31  1  0
 31 32  2  0
 32 33  1  0
 33 34  2  0
 34 35  1  0
 35 36  2  0
 13  8  1  0
 26 15  1  0
 24 20  1  0
 36 27  1  0
 36 31  1  0
M  END
>  <pIC50>  (748) 
6.34

>  <ChEMBL_ID>  (748) 
CHEMBL1946618

>  <document_journal>  (748) 
Bioorg. Med. Chem. Lett.

>  <bao_endpoint>  (748) 
BAO_0000190

>  <potential_duplicate>  (748) 
False

>  <uo_units>  (748) 
UO_0000065

>  <canonical_smiles>  (748) 
CN(CCO)C(=O)c1ccc(cc1)C(=C2CCN(Cc3cscn3)CC2)c4cccc5cccnc45

>  <parent_molecule_chembl_id>  (748) 
CHEMBL1946618

>  <assay_type>  (748) 
B

>  <src_id>  (748) 
1

>  <ligand_efficiency>  (748) 
{u'le': u'0.24', u'bei': u'12.71', u'sei': u'6.48', u'lle': u'2.82'}

>  <standard_flag>  (748) 
True

>  <molecule_chembl_id>  (748) 
CHEMBL1946618

>  <target_organism>  (748) 
Homo sapiens

>  <standard_units>  (748) 
nM

>  <record_id>  (748) 
1575956

>  <document_chembl_id>  (748) 
CHEMBL1944587

>  <bao_format>  (748) 
BAO_0000219

>  <data_validity_description>  (748) 
None

>  <activity_id>  (748) 
8021479

>  <standard_type>  (748) 
IC50

>  <target_chembl_id>  (748) 
CHEMBL233

>  <data_validity_comment>  (748) 
None

>  <published_value>  (748) 
460

>  <document_year>  (748) 
2012

>  <target_pref_name>  (748) 
Mu opioid receptor

>  <assay_chembl_id>  (748) 
CHEMBL1947874

>  <standard_relation>  (748) 
=

>  <assay_description>  (748) 
Displacement of radiolabeled FK33-824 from mu opioid receptor expressed in HEK293 cell membranes

>  <published_relation>  (748) 
=

>  <standard_value>  (748) 
460

>  <qudt_units>  (748) 
http://www.openphacts.org/units/Nanomolar

>  <target_tax_id>  (748) 
9606

>  <bao_label>  (748) 
cell-based format

>  <published_units>  (748) 
nM

>  <pchembl_value>  (748) 
6.34

>  <published_type>  (748) 
IC50

>  <activity_comment>  (748) 
None

$$$$

     RDKit          

 30 33  0  0  0  0  0  0  0  0999 V2000
    0.0000    0.0000    0.0000 C   0  0  0  0  0  0  0  0  0  0  0  0
    0.0000    0.0000    0.0000 N   0  0  0  0  0  0  0  0  0  0  0  0
    0.0000    0.0000    0.0000 C   0  0  0  0  0  0  0  0  0  0  0  0
    0.0000    0.0000    0.0000 C   0  0  0  0  0  0  0  0  0  0  0  0
    0.0000    0.0000    0.0000 O   0  0  0  0  0  0  0  0  0  0  0  0
    0.0000    0.0000    0.0000 C   0  0  0  0  0  0  0  0  0  0  0  0
    0.0000    0.0000    0.0000 C   0  0  0  0  0  0  0  0  0  0  0  0
    0.0000    0.0000    0.0000 C   0  0  0  0  0  0  0  0  0  0  0  0
    0.0000    0.0000    0.0000 C   0  0  0  0  0  0  0  0  0  0  0  0
    0.0000    0.0000    0.0000 C   0  0  0  0  0  0  0  0  0  0  0  0
    0.0000    0.0000    0.0000 C   0  0  0  0  0  0  0  0  0  0  0  0
    0.0000    0.0000    0.0000 C   0  0  0  0  0  0  0  0  0  0  0  0
    0.0000    0.0000    0.0000 C   0  0  0  0  0  0  0  0  0  0  0  0
    0.0000    0.0000    0.0000 C   0  0  0  0  0  0  0  0  0  0  0  0
    0.0000    0.0000    0.0000 C   0  0  0  0  0  0  0  0  0  0  0  0
    0.0000    0.0000    0.0000 N   0  0  0  0  0  0  0  0  0  0  0  0
    0.0000    0.0000    0.0000 C   0  0  0  0  0  0  0  0  0  0  0  0
    0.0000    0.0000    0.0000 C   0  0  0  0  0  0  0  0  0  0  0  0
    0.0000    0.0000    0.0000 C   0  0  0  0  0  0  0  0  0  0  0  0
    0.0000    0.0000    0.0000 S   0  0  0  0  0  0  0  0  0  0  0  0
    0.0000    0.0000    0.0000 C   0  0  0  0  0  0  0  0  0  0  0  0
    0.0000    0.0000    0.0000 N   0  0  0  0  0  0  0  0  0  0  0  0
    0.0000    0.0000    0.0000 C   0  0  0  0  0  0  0  0  0  0  0  0
    0.0000    0.0000    0.0000 C   0  0  0  0  0  0  0  0  0  0  0  0
    0.0000    0.0000    0.0000 C   0  0  0  0  0  0  0  0  0  0  0  0
    0.0000    0.0000    0.0000 C   0  0  0  0  0  0  0  0  0  0  0  0
    0.0000    0.0000    0.0000 C   0  0  0  0  0  0  0  0  0  0  0  0
    0.0000    0.0000    0.0000 C   0  0  0  0  0  0  0  0  0  0  0  0
    0.0000    0.0000    0.0000 C   0  0  0  0  0  0  0  0  0  0  0  0
    0.0000    0.0000    0.0000 N   0  0  0  0  0  0  0  0  0  0  0  0
  1  2  1  0
  2  3  1  0
  2  4  1  0
  4  5  2  0
  4  6  1  0
  6  7  2  0
  7  8  1  0
  8  9  2  0
  9 10  1  0
 10 11  2  0
  9 12  1  0
 12 13  2  3
 13 14  1  0
 14 15  1  0
 15 16  1  0
 16 17  1  0
 17 18  1  0
 18 19  2  0
 19 20  1  0
 20 21  1  0
 21 22  2  0
 16 23  1  0
 23 24  1  0
 12 25  1  0
 25 26  2  0
 26 27  1  0
 27 28  2  0
 28 29  1  0
 29 30  2  0
 11  6  1  0
 24 13  1  0
 22 18  1  0
 30 25  1  0
M  END
>  <pIC50>  (749) 
5.27

>  <ChEMBL_ID>  (749) 
CHEMBL1946621

>  <document_journal>  (749) 
Bioorg. Med. Chem. Lett.

>  <bao_endpoint>  (749) 
BAO_0000190

>  <potential_duplicate>  (749) 
False

>  <uo_units>  (749) 
UO_0000065

>  <canonical_smiles>  (749) 
CN(C)C(=O)c1ccc(cc1)C(=C2CCN(Cc3cscn3)CC2)c4ccccn4

>  <parent_molecule_chembl_id>  (749) 
CHEMBL1946621

>  <assay_type>  (749) 
B

>  <src_id>  (749) 
1

>  <ligand_efficiency>  (749) 
{u'le': u'0.24', u'bei': u'12.59', u'sei': u'6.79', u'lle': u'2.12'}

>  <standard_flag>  (749) 
True

>  <molecule_chembl_id>  (749) 
CHEMBL1946621

>  <target_organism>  (749) 
Homo sapiens

>  <standard_units>  (749) 
nM

>  <record_id>  (749) 
1575960

>  <document_chembl_id>  (749) 
CHEMBL1944587

>  <bao_format>  (749) 
BAO_0000219

>  <data_validity_description>  (749) 
None

>  <activity_id>  (749) 
8021517

>  <standard_type>  (749) 
IC50

>  <target_chembl_id>  (749) 
CHEMBL233

>  <data_validity_comment>  (749) 
None

>  <published_value>  (749) 
5400

>  <document_year>  (749) 
2012

>  <target_pref_name>  (749) 
Mu opioid receptor

>  <assay_chembl_id>  (749) 
CHEMBL1947874

>  <standard_relation>  (749) 
=

>  <assay_description>  (749) 
Displacement of radiolabeled FK33-824 from mu opioid receptor expressed in HEK293 cell membranes

>  <published_relation>  (749) 
=

>  <standard_value>  (749) 
5400

>  <qudt_units>  (749) 
http://www.openphacts.org/units/Nanomolar

>  <target_tax_id>  (749) 
9606

>  <bao_label>  (749) 
cell-based format

>  <published_units>  (749) 
nM

>  <pchembl_value>  (749) 
5.27

>  <published_type>  (749) 
IC50

>  <activity_comment>  (749) 
None

$$$$

     RDKit          

 30 35  0  0  0  0  0  0  0  0999 V2000
    0.0000    0.0000    0.0000 O   0  0  0  0  0  0  0  0  0  0  0  0
    0.0000    0.0000    0.0000 C   0  0  0  0  0  0  0  0  0  0  0  0
    0.0000    0.0000    0.0000 C   0  0  0  0  0  0  0  0  0  0  0  0
    0.0000    0.0000    0.0000 C   0  0  0  0  0  0  0  0  0  0  0  0
    0.0000    0.0000    0.0000 C   0  0  0  0  0  0  0  0  0  0  0  0
    0.0000    0.0000    0.0000 C   0  0  0  0  0  0  0  0  0  0  0  0
    0.0000    0.0000    0.0000 N   0  0  0  0  0  0  0  0  0  0  0  0
    0.0000    0.0000    0.0000 C   0  0  0  0  0  0  0  0  0  0  0  0
    0.0000    0.0000    0.0000 C   0  0  0  0  0  0  0  0  0  0  0  0
    0.0000    0.0000    0.0000 C   0  0  0  0  0  0  0  0  0  0  0  0
    0.0000    0.0000    0.0000 C   0  0  0  0  0  0  0  0  0  0  0  0
    0.0000    0.0000    0.0000 C   0  0  0  0  0  0  0  0  0  0  0  0
    0.0000    0.0000    0.0000 C   0  0  0  0  0  0  0  0  0  0  0  0
    0.0000    0.0000    0.0000 C   0  0  0  0  0  0  0  0  0  0  0  0
    0.0000    0.0000    0.0000 C   0  0  0  0  0  0  0  0  0  0  0  0
    0.0000    0.0000    0.0000 C   0  0  0  0  0  0  0  0  0  0  0  0
    0.0000    0.0000    0.0000 C   0  0  0  0  0  0  0  0  0  0  0  0
    0.0000    0.0000    0.0000 C   0  0  0  0  0  0  0  0  0  0  0  0
    0.0000    0.0000    0.0000 C   0  0  0  0  0  0  0  0  0  0  0  0
    0.0000    0.0000    0.0000 C   0  0  0  0  0  0  0  0  0  0  0  0
    0.0000    0.0000    0.0000 C   0  0  0  0  0  0  0  0  0  0  0  0
    0.0000    0.0000    0.0000 N   0  0  0  0  0  0  0  0  0  0  0  0
    0.0000    0.0000    0.0000 C   0  0  0  0  0  0  0  0  0  0  0  0
    0.0000    0.0000    0.0000 C   0  0  0  0  0  0  0  0  0  0  0  0
    0.0000    0.0000    0.0000 C   0  0  0  0  0  0  0  0  0  0  0  0
    0.0000    0.0000    0.0000 C   0  0  0  0  0  0  0  0  0  0  0  0
    0.0000    0.0000    0.0000 C   0  0  0  0  0  0  0  0  0  0  0  0
    0.0000    0.0000    0.0000 C   0  0  0  0  0  0  0  0  0  0  0  0
    0.0000    0.0000    0.0000 C   0  0  0  0  0  0  0  0  0  0  0  0
    0.0000    0.0000    0.0000 C   0  0  0  0  0  0  0  0  0  0  0  0
  1  2  1  0
  2  3  2  0
  3  4  1  0
  4  5  2  0
  5  6  1  0
  6  7  1  0
  7  8  1  0
  8  9  2  0
  9 10  1  0
 10 11  2  0
 11 12  1  0
 12 13  1  0
 13 14  1  0
 14 15  1  0
 15 16  1  0
 16 17  1  0
 17 18  1  0
 18 19  1  0
 19 20  1  0
 20 21  1  0
 21 22  1  0
 22 23  1  0
 23 24  1  0
 24 25  1  0
 25 26  1  0
 19 27  1  0
 27 28  2  0
  5 29  1  0
 29 30  2  0
 30  2  1  0
 28  8  1  0
 27 11  1  0
 22 13  1  0
 19 14  1  0
 26 24  1  0
M  END
>  <pIC50>  (750) 
8.12

>  <ChEMBL_ID>  (750) 
CHEMBL2048773

>  <document_journal>  (750) 
J. Med. Chem.

>  <bao_endpoint>  (750) 
BAO_0000190

>  <potential_duplicate>  (750) 
False

>  <uo_units>  (750) 
UO_0000065

>  <canonical_smiles>  (750) 
Oc1ccc(CNc2ccc3C[C@@H]4[C@@H]5CCCC[C@]5(CCN4CC6CC6)c3c2)cc1

>  <parent_molecule_chembl_id>  (750) 
CHEMBL2048773

>  <assay_type>  (750) 
B

>  <src_id>  (750) 
1

>  <ligand_efficiency>  (750) 
{u'le': u'0.37', u'bei': u'20.17', u'sei': u'22.87', u'lle': u'2.46'}

>  <standard_flag>  (750) 
True

>  <molecule_chembl_id>  (750) 
CHEMBL2048773

>  <target_organism>  (750) 
Homo sapiens

>  <standard_units>  (750) 
nM

>  <record_id>  (750) 
1654254

>  <document_chembl_id>  (750) 
CHEMBL2046406

>  <bao_format>  (750) 
BAO_0000219

>  <data_validity_description>  (750) 
None

>  <activity_id>  (750) 
10948935

>  <standard_type>  (750) 
IC50

>  <target_chembl_id>  (750) 
CHEMBL233

>  <data_validity_comment>  (750) 
None

>  <published_value>  (750) 
7.6

>  <document_year>  (750) 
2012

>  <target_pref_name>  (750) 
Mu opioid receptor

>  <assay_chembl_id>  (750) 
CHEMBL2050643

>  <standard_relation>  (750) 
=

>  <assay_description>  (750) 
Antagonist activity at human mu opioid receptor expressed in CHO cells assessed as inhibition of DAMGO-induced [33S]GTPgammaS binding after 60 mins by scintillation counting

>  <published_relation>  (750) 
=

>  <standard_value>  (750) 
7.6

>  <qudt_units>  (750) 
http://www.openphacts.org/units/Nanomolar

>  <target_tax_id>  (750) 
9606

>  <bao_label>  (750) 
cell-based format

>  <published_units>  (750) 
nM

>  <pchembl_value>  (750) 
8.12

>  <published_type>  (750) 
IC50

>  <activity_comment>  (750) 
None

$$$$

     RDKit          

 30 35  0  0  0  0  0  0  0  0999 V2000
    0.0000    0.0000    0.0000 O   0  0  0  0  0  0  0  0  0  0  0  0
    0.0000    0.0000    0.0000 C   0  0  0  0  0  0  0  0  0  0  0  0
    0.0000    0.0000    0.0000 C   0  0  0  0  0  0  0  0  0  0  0  0
    0.0000    0.0000    0.0000 C   0  0  0  0  0  0  0  0  0  0  0  0
    0.0000    0.0000    0.0000 C   0  0  0  0  0  0  0  0  0  0  0  0
    0.0000    0.0000    0.0000 C   0  0  0  0  0  0  0  0  0  0  0  0
    0.0000    0.0000    0.0000 C   0  0  0  0  0  0  0  0  0  0  0  0
    0.0000    0.0000    0.0000 N   0  0  0  0  0  0  0  0  0  0  0  0
    0.0000    0.0000    0.0000 C   0  0  0  0  0  0  0  0  0  0  0  0
    0.0000    0.0000    0.0000 C   0  0  0  0  0  0  0  0  0  0  0  0
    0.0000    0.0000    0.0000 C   0  0  0  0  0  0  0  0  0  0  0  0
    0.0000    0.0000    0.0000 C   0  0  0  0  0  0  0  0  0  0  0  0
    0.0000    0.0000    0.0000 C   0  0  0  0  0  0  0  0  0  0  0  0
    0.0000    0.0000    0.0000 C   0  0  0  0  0  0  0  0  0  0  0  0
    0.0000    0.0000    0.0000 C   0  0  0  0  0  0  0  0  0  0  0  0
    0.0000    0.0000    0.0000 C   0  0  0  0  0  0  0  0  0  0  0  0
    0.0000    0.0000    0.0000 C   0  0  0  0  0  0  0  0  0  0  0  0
    0.0000    0.0000    0.0000 C   0  0  0  0  0  0  0  0  0  0  0  0
    0.0000    0.0000    0.0000 C   0  0  0  0  0  0  0  0  0  0  0  0
    0.0000    0.0000    0.0000 C   0  0  0  0  0  0  0  0  0  0  0  0
    0.0000    0.0000    0.0000 C   0  0  0  0  0  0  0  0  0  0  0  0
    0.0000    0.0000    0.0000 C   0  0  0  0  0  0  0  0  0  0  0  0
    0.0000    0.0000    0.0000 N   0  0  0  0  0  0  0  0  0  0  0  0
    0.0000    0.0000    0.0000 C   0  0  0  0  0  0  0  0  0  0  0  0
    0.0000    0.0000    0.0000 C   0  0  0  0  0  0  0  0  0  0  0  0
    0.0000    0.0000    0.0000 C   0  0  0  0  0  0  0  0  0  0  0  0
    0.0000    0.0000    0.0000 C   0  0  0  0  0  0  0  0  0  0  0  0
    0.0000    0.0000    0.0000 C   0  0  0  0  0  0  0  0  0  0  0  0
    0.0000    0.0000    0.0000 C   0  0  0  0  0  0  0  0  0  0  0  0
    0.0000    0.0000    0.0000 C   0  0  0  0  0  0  0  0  0  0  0  0
  1  2  1  0
  2  3  2  0
  3  4  1  0
  4  5  2  0
  5  6  1  0
  6  7  1  0
  7  8  1  0
  8  9  1  0
  9 10  2  0
 10 11  1  0
 11 12  2  0
 12 13  1  0
 13 14  1  0
 14 15  1  0
 15 16  1  0
 16 17  1  0
 17 18  1  0
 18 19  1  0
 19 20  1  0
 20 21  1  0
 21 22  1  0
 22 23  1  0
 23 24  1  0
 24 25  1  0
 25 26  1  0
 26 27  1  0
 20 28  1  0
 28 29  2  0
  6 30  2  0
 30  2  1  0
 29  9  1  0
 28 12  1  0
 23 14  1  0
 20 15  1  0
 27 25  1  0
M  END
>  <pIC50>  (751) 
8.46

>  <ChEMBL_ID>  (751) 
CHEMBL2048772

>  <document_journal>  (751) 
J. Med. Chem.

>  <bao_endpoint>  (751) 
BAO_0000190

>  <potential_duplicate>  (751) 
False

>  <uo_units>  (751) 
UO_0000065

>  <canonical_smiles>  (751) 
Oc1cccc(CNc2ccc3C[C@@H]4[C@@H]5CCCC[C@]5(CCN4CC6CC6)c3c2)c1

>  <parent_molecule_chembl_id>  (751) 
CHEMBL2048772

>  <assay_type>  (751) 
B

>  <src_id>  (751) 
1

>  <ligand_efficiency>  (751) 
{u'le': u'0.38', u'bei': u'21', u'sei': u'23.82', u'lle': u'2.8'}

>  <standard_flag>  (751) 
True

>  <molecule_chembl_id>  (751) 
CHEMBL2048772

>  <target_organism>  (751) 
Homo sapiens

>  <standard_units>  (751) 
nM

>  <record_id>  (751) 
1654253

>  <document_chembl_id>  (751) 
CHEMBL2046406

>  <bao_format>  (751) 
BAO_0000219

>  <data_validity_description>  (751) 
None

>  <activity_id>  (751) 
10948936

>  <standard_type>  (751) 
IC50

>  <target_chembl_id>  (751) 
CHEMBL233

>  <data_validity_comment>  (751) 
None

>  <published_value>  (751) 
3.5

>  <document_year>  (751) 
2012

>  <target_pref_name>  (751) 
Mu opioid receptor

>  <assay_chembl_id>  (751) 
CHEMBL2050643

>  <standard_relation>  (751) 
=

>  <assay_description>  (751) 
Antagonist activity at human mu opioid receptor expressed in CHO cells assessed as inhibition of DAMGO-induced [33S]GTPgammaS binding after 60 mins by scintillation counting

>  <published_relation>  (751) 
=

>  <standard_value>  (751) 
3.5

>  <qudt_units>  (751) 
http://www.openphacts.org/units/Nanomolar

>  <target_tax_id>  (751) 
9606

>  <bao_label>  (751) 
cell-based format

>  <published_units>  (751) 
nM

>  <pchembl_value>  (751) 
8.46

>  <published_type>  (751) 
IC50

>  <activity_comment>  (751) 
None

$$$$

     RDKit          

 30 35  0  0  0  0  0  0  0  0999 V2000
    0.0000    0.0000    0.0000 O   0  0  0  0  0  0  0  0  0  0  0  0
    0.0000    0.0000    0.0000 C   0  0  0  0  0  0  0  0  0  0  0  0
    0.0000    0.0000    0.0000 C   0  0  0  0  0  0  0  0  0  0  0  0
    0.0000    0.0000    0.0000 C   0  0  0  0  0  0  0  0  0  0  0  0
    0.0000    0.0000    0.0000 C   0  0  0  0  0  0  0  0  0  0  0  0
    0.0000    0.0000    0.0000 C   0  0  0  0  0  0  0  0  0  0  0  0
    0.0000    0.0000    0.0000 C   0  0  0  0  0  0  0  0  0  0  0  0
    0.0000    0.0000    0.0000 C   0  0  0  0  0  0  0  0  0  0  0  0
    0.0000    0.0000    0.0000 N   0  0  0  0  0  0  0  0  0  0  0  0
    0.0000    0.0000    0.0000 C   0  0  0  0  0  0  0  0  0  0  0  0
    0.0000    0.0000    0.0000 C   0  0  0  0  0  0  0  0  0  0  0  0
    0.0000    0.0000    0.0000 C   0  0  0  0  0  0  0  0  0  0  0  0
    0.0000    0.0000    0.0000 C   0  0  0  0  0  0  0  0  0  0  0  0
    0.0000    0.0000    0.0000 C   0  0  0  0  0  0  0  0  0  0  0  0
    0.0000    0.0000    0.0000 C   0  0  0  0  0  0  0  0  0  0  0  0
    0.0000    0.0000    0.0000 C   0  0  0  0  0  0  0  0  0  0  0  0
    0.0000    0.0000    0.0000 C   0  0  0  0  0  0  0  0  0  0  0  0
    0.0000    0.0000    0.0000 C   0  0  0  0  0  0  0  0  0  0  0  0
    0.0000    0.0000    0.0000 C   0  0  0  0  0  0  0  0  0  0  0  0
    0.0000    0.0000    0.0000 C   0  0  0  0  0  0  0  0  0  0  0  0
    0.0000    0.0000    0.0000 C   0  0  0  0  0  0  0  0  0  0  0  0
    0.0000    0.0000    0.0000 C   0  0  0  0  0  0  0  0  0  0  0  0
    0.0000    0.0000    0.0000 C   0  0  0  0  0  0  0  0  0  0  0  0
    0.0000    0.0000    0.0000 N   0  0  0  0  0  0  0  0  0  0  0  0
    0.0000    0.0000    0.0000 C   0  0  0  0  0  0  0  0  0  0  0  0
    0.0000    0.0000    0.0000 C   0  0  0  0  0  0  0  0  0  0  0  0
    0.0000    0.0000    0.0000 C   0  0  0  0  0  0  0  0  0  0  0  0
    0.0000    0.0000    0.0000 C   0  0  0  0  0  0  0  0  0  0  0  0
    0.0000    0.0000    0.0000 C   0  0  0  0  0  0  0  0  0  0  0  0
    0.0000    0.0000    0.0000 C   0  0  0  0  0  0  0  0  0  0  0  0
  1  2  1  0
  2  3  2  0
  3  4  1  0
  4  5  2  0
  5  6  1  0
  6  7  2  0
  7  8  1  0
  8  9  1  0
  9 10  1  0
 10 11  2  0
 11 12  1  0
 12 13  2  0
 13 14  1  0
 14 15  1  0
 15 16  1  0
 16 17  1  0
 17 18  1  0
 18 19  1  0
 19 20  1  0
 20 21  1  0
 21 22  1  0
 22 23  1  0
 23 24  1  0
 24 25  1  0
 25 26  1  0
 26 27  1  0
 27 28  1  0
 21 29  1  0
 29 30  2  0
  7  2  1  0
 30 10  1  0
 29 13  1  0
 24 15  1  0
 21 16  1  0
 28 26  1  0
M  END
>  <pIC50>  (752) 
6.8

>  <ChEMBL_ID>  (752) 
CHEMBL2048771

>  <document_journal>  (752) 
J. Med. Chem.

>  <bao_endpoint>  (752) 
BAO_0000190

>  <potential_duplicate>  (752) 
False

>  <uo_units>  (752) 
UO_0000065

>  <canonical_smiles>  (752) 
Oc1ccccc1CNc2ccc3C[C@@H]4[C@@H]5CCCC[C@]5(CCN4CC6CC6)c3c2

>  <parent_molecule_chembl_id>  (752) 
CHEMBL2048771

>  <assay_type>  (752) 
B

>  <src_id>  (752) 
1

>  <ligand_efficiency>  (752) 
{u'le': u'0.31', u'bei': u'16.88', u'sei': u'19.14', u'lle': u'1.14'}

>  <standard_flag>  (752) 
True

>  <molecule_chembl_id>  (752) 
CHEMBL2048771

>  <target_organism>  (752) 
Homo sapiens

>  <standard_units>  (752) 
nM

>  <record_id>  (752) 
1654252

>  <document_chembl_id>  (752) 
CHEMBL2046406

>  <bao_format>  (752) 
BAO_0000219

>  <data_validity_description>  (752) 
None

>  <activity_id>  (752) 
10948937

>  <standard_type>  (752) 
IC50

>  <target_chembl_id>  (752) 
CHEMBL233

>  <data_validity_comment>  (752) 
None

>  <published_value>  (752) 
160

>  <document_year>  (752) 
2012

>  <target_pref_name>  (752) 
Mu opioid receptor

>  <assay_chembl_id>  (752) 
CHEMBL2050643

>  <standard_relation>  (752) 
=

>  <assay_description>  (752) 
Antagonist activity at human mu opioid receptor expressed in CHO cells assessed as inhibition of DAMGO-induced [33S]GTPgammaS binding after 60 mins by scintillation counting

>  <published_relation>  (752) 
=

>  <standard_value>  (752) 
160

>  <qudt_units>  (752) 
http://www.openphacts.org/units/Nanomolar

>  <target_tax_id>  (752) 
9606

>  <bao_label>  (752) 
cell-based format

>  <published_units>  (752) 
nM

>  <pchembl_value>  (752) 
6.8

>  <published_type>  (752) 
IC50

>  <activity_comment>  (752) 
None

$$$$

     RDKit          

 31 36  0  0  0  0  0  0  0  0999 V2000
    0.0000    0.0000    0.0000 O   0  0  0  0  0  0  0  0  0  0  0  0
    0.0000    0.0000    0.0000 C   0  0  0  0  0  0  0  0  0  0  0  0
    0.0000    0.0000    0.0000 C   0  0  0  0  0  0  0  0  0  0  0  0
    0.0000    0.0000    0.0000 C   0  0  0  0  0  0  0  0  0  0  0  0
    0.0000    0.0000    0.0000 C   0  0  0  0  0  0  0  0  0  0  0  0
    0.0000    0.0000    0.0000 C   0  0  0  0  0  0  0  0  0  0  0  0
    0.0000    0.0000    0.0000 N   0  0  0  0  0  0  0  0  0  0  0  0
    0.0000    0.0000    0.0000 C   0  0  0  0  0  0  0  0  0  0  0  0
    0.0000    0.0000    0.0000 C   0  0  0  0  0  0  0  0  0  0  0  0
    0.0000    0.0000    0.0000 C   0  0  0  0  0  0  0  0  0  0  0  0
    0.0000    0.0000    0.0000 C   0  0  0  0  0  0  0  0  0  0  0  0
    0.0000    0.0000    0.0000 C   0  0  0  0  0  0  0  0  0  0  0  0
    0.0000    0.0000    0.0000 C   0  0  0  0  0  0  0  0  0  0  0  0
    0.0000    0.0000    0.0000 C   0  0  0  0  0  0  0  0  0  0  0  0
    0.0000    0.0000    0.0000 C   0  0  0  0  0  0  0  0  0  0  0  0
    0.0000    0.0000    0.0000 C   0  0  0  0  0  0  0  0  0  0  0  0
    0.0000    0.0000    0.0000 C   0  0  0  0  0  0  0  0  0  0  0  0
    0.0000    0.0000    0.0000 C   0  0  0  0  0  0  0  0  0  0  0  0
    0.0000    0.0000    0.0000 C   0  0  0  0  0  0  0  0  0  0  0  0
    0.0000    0.0000    0.0000 C   0  0  0  0  0  0  0  0  0  0  0  0
    0.0000    0.0000    0.0000 C   0  0  0  0  0  0  0  0  0  0  0  0
    0.0000    0.0000    0.0000 N   0  0  0  0  0  0  0  0  0  0  0  0
    0.0000    0.0000    0.0000 C   0  0  0  0  0  0  0  0  0  0  0  0
    0.0000    0.0000    0.0000 C   0  0  0  0  0  0  0  0  0  0  0  0
    0.0000    0.0000    0.0000 C   0  0  0  0  0  0  0  0  0  0  0  0
    0.0000    0.0000    0.0000 C   0  0  0  0  0  0  0  0  0  0  0  0
    0.0000    0.0000    0.0000 C   0  0  0  0  0  0  0  0  0  0  0  0
    0.0000    0.0000    0.0000 C   0  0  0  0  0  0  0  0  0  0  0  0
    0.0000    0.0000    0.0000 C   0  0  0  0  0  0  0  0  0  0  0  0
    0.0000    0.0000    0.0000 C   0  0  0  0  0  0  0  0  0  0  0  0
    0.0000    0.0000    0.0000 C   0  0  0  0  0  0  0  0  0  0  0  0
  1  2  1  0
  2  3  2  0
  3  4  1  0
  4  5  2  0
  5  6  1  0
  6  7  1  0
  7  8  1  0
  8  9  2  0
  9 10  1  0
 10 11  2  0
 11 12  1  0
 12 13  1  0
 13 14  1  0
 14 15  1  0
 15 16  1  0
 16 17  1  0
 17 18  1  0
 18 19  1  0
 19 20  1  0
 20 21  1  0
 21 22  1  0
 22 23  1  0
 23 24  1  0
 24 25  1  0
 25 26  1  0
 26 27  1  0
 19 28  1  0
 28 29  2  0
  5 30  1  0
 30 31  2  0
 31  2  1  0
 29  8  1  0
 28 11  1  0
 22 13  1  0
 19 14  1  0
 27 24  1  0
M  END
>  <pIC50>  (753) 
7.13

>  <ChEMBL_ID>  (753) 
CHEMBL2048770

>  <document_journal>  (753) 
J. Med. Chem.

>  <bao_endpoint>  (753) 
BAO_0000190

>  <potential_duplicate>  (753) 
False

>  <uo_units>  (753) 
UO_0000065

>  <canonical_smiles>  (753) 
Oc1ccc(CNc2ccc3C[C@@H]4[C@@H]5CCCC[C@]5(CCN4CC6CCC6)c3c2)cc1

>  <parent_molecule_chembl_id>  (753) 
CHEMBL2048770

>  <assay_type>  (753) 
B

>  <src_id>  (753) 
1

>  <ligand_efficiency>  (753) 
{u'le': u'0.31', u'bei': u'17.1', u'sei': u'20.07', u'lle': u'1'}

>  <standard_flag>  (753) 
True

>  <molecule_chembl_id>  (753) 
CHEMBL2048770

>  <target_organism>  (753) 
Homo sapiens

>  <standard_units>  (753) 
nM

>  <record_id>  (753) 
1654251

>  <document_chembl_id>  (753) 
CHEMBL2046406

>  <bao_format>  (753) 
BAO_0000219

>  <data_validity_description>  (753) 
None

>  <activity_id>  (753) 
10948938

>  <standard_type>  (753) 
IC50

>  <target_chembl_id>  (753) 
CHEMBL233

>  <data_validity_comment>  (753) 
None

>  <published_value>  (753) 
75

>  <document_year>  (753) 
2012

>  <target_pref_name>  (753) 
Mu opioid receptor

>  <assay_chembl_id>  (753) 
CHEMBL2050643

>  <standard_relation>  (753) 
=

>  <assay_description>  (753) 
Antagonist activity at human mu opioid receptor expressed in CHO cells assessed as inhibition of DAMGO-induced [33S]GTPgammaS binding after 60 mins by scintillation counting

>  <published_relation>  (753) 
=

>  <standard_value>  (753) 
75

>  <qudt_units>  (753) 
http://www.openphacts.org/units/Nanomolar

>  <target_tax_id>  (753) 
9606

>  <bao_label>  (753) 
cell-based format

>  <published_units>  (753) 
nM

>  <pchembl_value>  (753) 
7.13

>  <published_type>  (753) 
IC50

>  <activity_comment>  (753) 
None

$$$$

     RDKit          

 31 36  0  0  0  0  0  0  0  0999 V2000
    0.0000    0.0000    0.0000 O   0  0  0  0  0  0  0  0  0  0  0  0
    0.0000    0.0000    0.0000 C   0  0  0  0  0  0  0  0  0  0  0  0
    0.0000    0.0000    0.0000 C   0  0  0  0  0  0  0  0  0  0  0  0
    0.0000    0.0000    0.0000 C   0  0  0  0  0  0  0  0  0  0  0  0
    0.0000    0.0000    0.0000 C   0  0  0  0  0  0  0  0  0  0  0  0
    0.0000    0.0000    0.0000 C   0  0  0  0  0  0  0  0  0  0  0  0
    0.0000    0.0000    0.0000 C   0  0  0  0  0  0  0  0  0  0  0  0
    0.0000    0.0000    0.0000 N   0  0  0  0  0  0  0  0  0  0  0  0
    0.0000    0.0000    0.0000 C   0  0  0  0  0  0  0  0  0  0  0  0
    0.0000    0.0000    0.0000 C   0  0  0  0  0  0  0  0  0  0  0  0
    0.0000    0.0000    0.0000 C   0  0  0  0  0  0  0  0  0  0  0  0
    0.0000    0.0000    0.0000 C   0  0  0  0  0  0  0  0  0  0  0  0
    0.0000    0.0000    0.0000 C   0  0  0  0  0  0  0  0  0  0  0  0
    0.0000    0.0000    0.0000 C   0  0  0  0  0  0  0  0  0  0  0  0
    0.0000    0.0000    0.0000 C   0  0  0  0  0  0  0  0  0  0  0  0
    0.0000    0.0000    0.0000 C   0  0  0  0  0  0  0  0  0  0  0  0
    0.0000    0.0000    0.0000 C   0  0  0  0  0  0  0  0  0  0  0  0
    0.0000    0.0000    0.0000 C   0  0  0  0  0  0  0  0  0  0  0  0
    0.0000    0.0000    0.0000 C   0  0  0  0  0  0  0  0  0  0  0  0
    0.0000    0.0000    0.0000 C   0  0  0  0  0  0  0  0  0  0  0  0
    0.0000    0.0000    0.0000 C   0  0  0  0  0  0  0  0  0  0  0  0
    0.0000    0.0000    0.0000 C   0  0  0  0  0  0  0  0  0  0  0  0
    0.0000    0.0000    0.0000 N   0  0  0  0  0  0  0  0  0  0  0  0
    0.0000    0.0000    0.0000 C   0  0  0  0  0  0  0  0  0  0  0  0
    0.0000    0.0000    0.0000 C   0  0  0  0  0  0  0  0  0  0  0  0
    0.0000    0.0000    0.0000 C   0  0  0  0  0  0  0  0  0  0  0  0
    0.0000    0.0000    0.0000 C   0  0  0  0  0  0  0  0  0  0  0  0
    0.0000    0.0000    0.0000 C   0  0  0  0  0  0  0  0  0  0  0  0
    0.0000    0.0000    0.0000 C   0  0  0  0  0  0  0  0  0  0  0  0
    0.0000    0.0000    0.0000 C   0  0  0  0  0  0  0  0  0  0  0  0
    0.0000    0.0000    0.0000 C   0  0  0  0  0  0  0  0  0  0  0  0
  1  2  1  0
  2  3  2  0
  3  4  1  0
  4  5  2  0
  5  6  1  0
  6  7  1  0
  7  8  1  0
  8  9  1  0
  9 10  2  0
 10 11  1  0
 11 12  2  0
 12 13  1  0
 13 14  1  0
 14 15  1  0
 15 16  1  0
 16 17  1  0
 17 18  1  0
 18 19  1  0
 19 20  1  0
 20 21  1  0
 21 22  1  0
 22 23  1  0
 23 24  1  0
 24 25  1  0
 25 26  1  0
 26 27  1  0
 27 28  1  0
 20 29  1  0
 29 30  2  0
  6 31  2  0
 31  2  1  0
 30  9  1  0
 29 12  1  0
 23 14  1  0
 20 15  1  0
 28 25  1  0
M  END
>  <pIC50>  (754) 
8.32

>  <ChEMBL_ID>  (754) 
CHEMBL2048769

>  <document_journal>  (754) 
J. Med. Chem.

>  <bao_endpoint>  (754) 
BAO_0000190

>  <potential_duplicate>  (754) 
False

>  <uo_units>  (754) 
UO_0000065

>  <canonical_smiles>  (754) 
Oc1cccc(CNc2ccc3C[C@@H]4[C@@H]5CCCC[C@]5(CCN4CC6CCC6)c3c2)c1

>  <parent_molecule_chembl_id>  (754) 
CHEMBL2048769

>  <assay_type>  (754) 
B

>  <src_id>  (754) 
1

>  <ligand_efficiency>  (754) 
{u'le': u'0.37', u'bei': u'19.97', u'sei': u'23.43', u'lle': u'2.2'}

>  <standard_flag>  (754) 
True

>  <molecule_chembl_id>  (754) 
CHEMBL2048769

>  <target_organism>  (754) 
Homo sapiens

>  <standard_units>  (754) 
nM

>  <record_id>  (754) 
1654250

>  <document_chembl_id>  (754) 
CHEMBL2046406

>  <bao_format>  (754) 
BAO_0000219

>  <data_validity_description>  (754) 
None

>  <activity_id>  (754) 
10948939

>  <standard_type>  (754) 
IC50

>  <target_chembl_id>  (754) 
CHEMBL233

>  <data_validity_comment>  (754) 
None

>  <published_value>  (754) 
4.8

>  <document_year>  (754) 
2012

>  <target_pref_name>  (754) 
Mu opioid receptor

>  <assay_chembl_id>  (754) 
CHEMBL2050643

>  <standard_relation>  (754) 
=

>  <assay_description>  (754) 
Antagonist activity at human mu opioid receptor expressed in CHO cells assessed as inhibition of DAMGO-induced [33S]GTPgammaS binding after 60 mins by scintillation counting

>  <published_relation>  (754) 
=

>  <standard_value>  (754) 
4.8

>  <qudt_units>  (754) 
http://www.openphacts.org/units/Nanomolar

>  <target_tax_id>  (754) 
9606

>  <bao_label>  (754) 
cell-based format

>  <published_units>  (754) 
nM

>  <pchembl_value>  (754) 
8.32

>  <published_type>  (754) 
IC50

>  <activity_comment>  (754) 
None

$$$$

     RDKit          

 31 36  0  0  0  0  0  0  0  0999 V2000
    0.0000    0.0000    0.0000 O   0  0  0  0  0  0  0  0  0  0  0  0
    0.0000    0.0000    0.0000 C   0  0  0  0  0  0  0  0  0  0  0  0
    0.0000    0.0000    0.0000 C   0  0  0  0  0  0  0  0  0  0  0  0
    0.0000    0.0000    0.0000 C   0  0  0  0  0  0  0  0  0  0  0  0
    0.0000    0.0000    0.0000 C   0  0  0  0  0  0  0  0  0  0  0  0
    0.0000    0.0000    0.0000 C   0  0  0  0  0  0  0  0  0  0  0  0
    0.0000    0.0000    0.0000 C   0  0  0  0  0  0  0  0  0  0  0  0
    0.0000    0.0000    0.0000 C   0  0  0  0  0  0  0  0  0  0  0  0
    0.0000    0.0000    0.0000 N   0  0  0  0  0  0  0  0  0  0  0  0
    0.0000    0.0000    0.0000 C   0  0  0  0  0  0  0  0  0  0  0  0
    0.0000    0.0000    0.0000 C   0  0  0  0  0  0  0  0  0  0  0  0
    0.0000    0.0000    0.0000 C   0  0  0  0  0  0  0  0  0  0  0  0
    0.0000    0.0000    0.0000 C   0  0  0  0  0  0  0  0  0  0  0  0
    0.0000    0.0000    0.0000 C   0  0  0  0  0  0  0  0  0  0  0  0
    0.0000    0.0000    0.0000 C   0  0  0  0  0  0  0  0  0  0  0  0
    0.0000    0.0000    0.0000 C   0  0  0  0  0  0  0  0  0  0  0  0
    0.0000    0.0000    0.0000 C   0  0  0  0  0  0  0  0  0  0  0  0
    0.0000    0.0000    0.0000 C   0  0  0  0  0  0  0  0  0  0  0  0
    0.0000    0.0000    0.0000 C   0  0  0  0  0  0  0  0  0  0  0  0
    0.0000    0.0000    0.0000 C   0  0  0  0  0  0  0  0  0  0  0  0
    0.0000    0.0000    0.0000 C   0  0  0  0  0  0  0  0  0  0  0  0
    0.0000    0.0000    0.0000 C   0  0  0  0  0  0  0  0  0  0  0  0
    0.0000    0.0000    0.0000 C   0  0  0  0  0  0  0  0  0  0  0  0
    0.0000    0.0000    0.0000 N   0  0  0  0  0  0  0  0  0  0  0  0
    0.0000    0.0000    0.0000 C   0  0  0  0  0  0  0  0  0  0  0  0
    0.0000    0.0000    0.0000 C   0  0  0  0  0  0  0  0  0  0  0  0
    0.0000    0.0000    0.0000 C   0  0  0  0  0  0  0  0  0  0  0  0
    0.0000    0.0000    0.0000 C   0  0  0  0  0  0  0  0  0  0  0  0
    0.0000    0.0000    0.0000 C   0  0  0  0  0  0  0  0  0  0  0  0
    0.0000    0.0000    0.0000 C   0  0  0  0  0  0  0  0  0  0  0  0
    0.0000    0.0000    0.0000 C   0  0  0  0  0  0  0  0  0  0  0  0
  1  2  1  0
  2  3  2  0
  3  4  1  0
  4  5  2  0
  5  6  1  0
  6  7  2  0
  7  8  1  0
  8  9  1  0
  9 10  1  0
 10 11  2  0
 11 12  1  0
 12 13  2  0
 13 14  1  0
 14 15  1  0
 15 16  1  0
 16 17  1  0
 17 18  1  0
 18 19  1  0
 19 20  1  0
 20 21  1  0
 21 22  1  0
 22 23  1  0
 23 24  1  0
 24 25  1  0
 25 26  1  0
 26 27  1  0
 27 28  1  0
 28 29  1  0
 21 30  1  0
 30 31  2  0
  7  2  1  0
 31 10  1  0
 30 13  1  0
 24 15  1  0
 21 16  1  0
 29 26  1  0
M  END
>  <pIC50>  (755) 
6.09

>  <ChEMBL_ID>  (755) 
CHEMBL2048768

>  <document_journal>  (755) 
J. Med. Chem.

>  <bao_endpoint>  (755) 
BAO_0000190

>  <potential_duplicate>  (755) 
False

>  <uo_units>  (755) 
UO_0000065

>  <canonical_smiles>  (755) 
Oc1ccccc1CNc2ccc3C[C@@H]4[C@@H]5CCCC[C@]5(CCN4CC6CCC6)c3c2

>  <parent_molecule_chembl_id>  (755) 
CHEMBL2048768

>  <assay_type>  (755) 
B

>  <src_id>  (755) 
1

>  <ligand_efficiency>  (755) 
{u'le': u'0.27', u'bei': u'14.62', u'sei': u'17.16', u'lle': u'-0.03'}

>  <standard_flag>  (755) 
True

>  <molecule_chembl_id>  (755) 
CHEMBL2048768

>  <target_organism>  (755) 
Homo sapiens

>  <standard_units>  (755) 
nM

>  <record_id>  (755) 
1654249

>  <document_chembl_id>  (755) 
CHEMBL2046406

>  <bao_format>  (755) 
BAO_0000219

>  <data_validity_description>  (755) 
None

>  <activity_id>  (755) 
10948940

>  <standard_type>  (755) 
IC50

>  <target_chembl_id>  (755) 
CHEMBL233

>  <data_validity_comment>  (755) 
None

>  <published_value>  (755) 
810

>  <document_year>  (755) 
2012

>  <target_pref_name>  (755) 
Mu opioid receptor

>  <assay_chembl_id>  (755) 
CHEMBL2050643

>  <standard_relation>  (755) 
=

>  <assay_description>  (755) 
Antagonist activity at human mu opioid receptor expressed in CHO cells assessed as inhibition of DAMGO-induced [33S]GTPgammaS binding after 60 mins by scintillation counting

>  <published_relation>  (755) 
=

>  <standard_value>  (755) 
810

>  <qudt_units>  (755) 
http://www.openphacts.org/units/Nanomolar

>  <target_tax_id>  (755) 
9606

>  <bao_label>  (755) 
cell-based format

>  <published_units>  (755) 
nM

>  <pchembl_value>  (755) 
6.09

>  <published_type>  (755) 
IC50

>  <activity_comment>  (755) 
None

$$$$

     RDKit          

 33 38  0  0  0  0  0  0  0  0999 V2000
    0.0000    0.0000    0.0000 O   0  0  0  0  0  0  0  0  0  0  0  0
    0.0000    0.0000    0.0000 N   0  0  0  0  0  0  0  0  0  0  0  0
    0.0000    0.0000    0.0000 O   0  0  0  0  0  0  0  0  0  0  0  0
    0.0000    0.0000    0.0000 C   0  0  0  0  0  0  0  0  0  0  0  0
    0.0000    0.0000    0.0000 C   0  0  0  0  0  0  0  0  0  0  0  0
    0.0000    0.0000    0.0000 C   0  0  0  0  0  0  0  0  0  0  0  0
    0.0000    0.0000    0.0000 C   0  0  0  0  0  0  0  0  0  0  0  0
    0.0000    0.0000    0.0000 C   0  0  0  0  0  0  0  0  0  0  0  0
    0.0000    0.0000    0.0000 C   0  0  0  0  0  0  0  0  0  0  0  0
    0.0000    0.0000    0.0000 N   0  0  0  0  0  0  0  0  0  0  0  0
    0.0000    0.0000    0.0000 C   0  0  0  0  0  0  0  0  0  0  0  0
    0.0000    0.0000    0.0000 C   0  0  0  0  0  0  0  0  0  0  0  0
    0.0000    0.0000    0.0000 C   0  0  0  0  0  0  0  0  0  0  0  0
    0.0000    0.0000    0.0000 C   0  0  0  0  0  0  0  0  0  0  0  0
    0.0000    0.0000    0.0000 C   0  0  0  0  0  0  0  0  0  0  0  0
    0.0000    0.0000    0.0000 C   0  0  0  0  0  0  0  0  0  0  0  0
    0.0000    0.0000    0.0000 C   0  0  0  0  0  0  0  0  0  0  0  0
    0.0000    0.0000    0.0000 C   0  0  0  0  0  0  0  0  0  0  0  0
    0.0000    0.0000    0.0000 C   0  0  0  0  0  0  0  0  0  0  0  0
    0.0000    0.0000    0.0000 C   0  0  0  0  0  0  0  0  0  0  0  0
    0.0000    0.0000    0.0000 C   0  0  0  0  0  0  0  0  0  0  0  0
    0.0000    0.0000    0.0000 C   0  0  0  0  0  0  0  0  0  0  0  0
    0.0000    0.0000    0.0000 C   0  0  0  0  0  0  0  0  0  0  0  0
    0.0000    0.0000    0.0000 C   0  0  0  0  0  0  0  0  0  0  0  0
    0.0000    0.0000    0.0000 N   0  0  0  0  0  0  0  0  0  0  0  0
    0.0000    0.0000    0.0000 C   0  0  0  0  0  0  0  0  0  0  0  0
    0.0000    0.0000    0.0000 C   0  0  0  0  0  0  0  0  0  0  0  0
    0.0000    0.0000    0.0000 C   0  0  0  0  0  0  0  0  0  0  0  0
    0.0000    0.0000    0.0000 C   0  0  0  0  0  0  0  0  0  0  0  0
    0.0000    0.0000    0.0000 C   0  0  0  0  0  0  0  0  0  0  0  0
    0.0000    0.0000    0.0000 C   0  0  0  0  0  0  0  0  0  0  0  0
    0.0000    0.0000    0.0000 C   0  0  0  0  0  0  0  0  0  0  0  0
    0.0000    0.0000    0.0000 C   0  0  0  0  0  0  0  0  0  0  0  0
  1  2  1  0
  2  3  2  0
  2  4  1  0
  4  5  2  0
  5  6  1  0
  6  7  2  0
  7  8  1  0
  8  9  1  0
  9 10  1  0
 10 11  1  0
 11 12  2  0
 12 13  1  0
 13 14  2  0
 14 15  1  0
 15 16  1  0
 16 17  1  0
 17 18  1  0
 18 19  1  0
 19 20  1  0
 20 21  1  0
 21 22  1  0
 22 23  1  0
 23 24  1  0
 24 25  1  0
 25 26  1  0
 26 27  1  0
 27 28  1  0
 28 29  1  0
 29 30  1  0
 22 31  1  0
 31 32  2  0
  8 33  2  0
 33  4  1  0
 32 11  1  0
 31 14  1  0
 25 16  1  0
 22 17  1  0
 30 27  1  0
M  CHG  2   1  -1   2   1
M  END
>  <pIC50>  (756) 
8.17

>  <ChEMBL_ID>  (756) 
CHEMBL2048767

>  <document_journal>  (756) 
J. Med. Chem.

>  <bao_endpoint>  (756) 
BAO_0000190

>  <potential_duplicate>  (756) 
False

>  <uo_units>  (756) 
UO_0000065

>  <canonical_smiles>  (756) 
[O-][N+](=O)c1cccc(CNc2ccc3C[C@@H]4[C@@H]5CCCC[C@]5(CCN4CC6CCC6)c3c2)c1

>  <parent_molecule_chembl_id>  (756) 
CHEMBL2048767

>  <assay_type>  (756) 
B

>  <src_id>  (756) 
1

>  <ligand_efficiency>  (756) 
{u'le': u'0.34', u'bei': u'18.33', u'sei': u'13.37', u'lle': u'1.92'}

>  <standard_flag>  (756) 
True

>  <molecule_chembl_id>  (756) 
CHEMBL2048767

>  <target_organism>  (756) 
Homo sapiens

>  <standard_units>  (756) 
nM

>  <record_id>  (756) 
1654248

>  <document_chembl_id>  (756) 
CHEMBL2046406

>  <bao_format>  (756) 
BAO_0000219

>  <data_validity_description>  (756) 
None

>  <activity_id>  (756) 
10948941

>  <standard_type>  (756) 
IC50

>  <target_chembl_id>  (756) 
CHEMBL233

>  <data_validity_comment>  (756) 
None

>  <published_value>  (756) 
6.8

>  <document_year>  (756) 
2012

>  <target_pref_name>  (756) 
Mu opioid receptor

>  <assay_chembl_id>  (756) 
CHEMBL2050643

>  <standard_relation>  (756) 
=

>  <assay_description>  (756) 
Antagonist activity at human mu opioid receptor expressed in CHO cells assessed as inhibition of DAMGO-induced [33S]GTPgammaS binding after 60 mins by scintillation counting

>  <published_relation>  (756) 
=

>  <standard_value>  (756) 
6.8

>  <qudt_units>  (756) 
http://www.openphacts.org/units/Nanomolar

>  <target_tax_id>  (756) 
9606

>  <bao_label>  (756) 
cell-based format

>  <published_units>  (756) 
nM

>  <pchembl_value>  (756) 
8.17

>  <published_type>  (756) 
IC50

>  <activity_comment>  (756) 
None

$$$$

     RDKit          

 32 38  0  0  0  0  0  0  0  0999 V2000
    0.0000    0.0000    0.0000 C   0  0  0  0  0  0  0  0  0  0  0  0
    0.0000    0.0000    0.0000 N   0  0  0  0  0  0  0  0  0  0  0  0
    0.0000    0.0000    0.0000 C   0  0  0  0  0  0  0  0  0  0  0  0
    0.0000    0.0000    0.0000 C   0  0  0  0  0  0  0  0  0  0  0  0
    0.0000    0.0000    0.0000 C   0  0  0  0  0  0  0  0  0  0  0  0
    0.0000    0.0000    0.0000 C   0  0  0  0  0  0  0  0  0  0  0  0
    0.0000    0.0000    0.0000 C   0  0  0  0  0  0  0  0  0  0  0  0
    0.0000    0.0000    0.0000 C   0  0  0  0  0  0  0  0  0  0  0  0
    0.0000    0.0000    0.0000 C   0  0  0  0  0  0  0  0  0  0  0  0
    0.0000    0.0000    0.0000 C   0  0  0  0  0  0  0  0  0  0  0  0
    0.0000    0.0000    0.0000 C   0  0  0  0  0  0  0  0  0  0  0  0
    0.0000    0.0000    0.0000 C   0  0  0  0  0  0  0  0  0  0  0  0
    0.0000    0.0000    0.0000 C   0  0  0  0  0  0  0  0  0  0  0  0
    0.0000    0.0000    0.0000 C   0  0  0  0  0  0  0  0  0  0  0  0
    0.0000    0.0000    0.0000 C   0  0  0  0  0  0  0  0  0  0  0  0
    0.0000    0.0000    0.0000 C   0  0  0  0  0  0  0  0  0  0  0  0
    0.0000    0.0000    0.0000 N   0  0  0  0  0  0  0  0  0  0  0  0
    0.0000    0.0000    0.0000 C   0  0  0  0  0  0  0  0  0  0  0  0
    0.0000    0.0000    0.0000 C   0  0  0  0  0  0  0  0  0  0  0  0
    0.0000    0.0000    0.0000 C   0  0  0  0  0  0  0  0  0  0  0  0
    0.0000    0.0000    0.0000 C   0  0  0  0  0  0  0  0  0  0  0  0
    0.0000    0.0000    0.0000 C   0  0  0  0  0  0  0  0  0  0  0  0
    0.0000    0.0000    0.0000 C   0  0  0  0  0  0  0  0  0  0  0  0
    0.0000    0.0000    0.0000 C   0  0  0  0  0  0  0  0  0  0  0  0
    0.0000    0.0000    0.0000 C   0  0  0  0  0  0  0  0  0  0  0  0
    0.0000    0.0000    0.0000 C   0  0  0  0  0  0  0  0  0  0  0  0
    0.0000    0.0000    0.0000 C   0  0  0  0  0  0  0  0  0  0  0  0
    0.0000    0.0000    0.0000 O   0  0  0  0  0  0  0  0  0  0  0  0
    0.0000    0.0000    0.0000 C   0  0  0  0  0  0  0  0  0  0  0  0
    0.0000    0.0000    0.0000 O   0  0  0  0  0  0  0  0  0  0  0  0
    0.0000    0.0000    0.0000 C   0  0  0  0  0  0  0  0  0  0  0  0
    0.0000    0.0000    0.0000 C   0  0  0  0  0  0  0  0  0  0  0  0
  1  2  1  0
  2  3  1  0
  3  4  2  0
  4  5  1  0
  5  6  2  0
  6  7  1  0
  7  8  1  0
  8  9  1  0
  9 10  1  0
 10 11  1  0
 11 12  1  0
 12 13  1  0
 13 14  1  0
 14 15  1  0
 15 16  1  0
 16 17  1  0
 17 18  1  0
 18 19  1  0
 19 20  1  0
 20 21  1  0
 14 22  1  0
 22 23  2  0
  1 24  1  0
 24 25  2  0
 25 26  1  0
 26 27  2  0
 27 28  1  0
 28 29  1  0
 29 30  1  0
 30 31  1  0
 31 32  2  0
 23  3  1  0
 22  6  1  0
 17  8  1  0
 14  9  1  0
 21 19  1  0
 32 24  1  0
 31 27  1  0
M  END
>  <pIC50>  (757) 
9.68

>  <ChEMBL_ID>  (757) 
CHEMBL2048766

>  <document_journal>  (757) 
J. Med. Chem.

>  <bao_endpoint>  (757) 
BAO_0000190

>  <potential_duplicate>  (757) 
False

>  <uo_units>  (757) 
UO_0000065

>  <canonical_smiles>  (757) 
C(Nc1ccc2C[C@@H]3[C@@H]4CCCC[C@]4(CCN3CC5CC5)c2c1)c6ccc7OCOc7c6

>  <parent_molecule_chembl_id>  (757) 
CHEMBL2048766

>  <assay_type>  (757) 
B

>  <src_id>  (757) 
1

>  <ligand_efficiency>  (757) 
{u'le': u'0.41', u'bei': u'22.48', u'sei': u'28.69', u'lle': u'4.01'}

>  <standard_flag>  (757) 
True

>  <molecule_chembl_id>  (757) 
CHEMBL2048766

>  <target_organism>  (757) 
Homo sapiens

>  <standard_units>  (757) 
nM

>  <record_id>  (757) 
1654247

>  <document_chembl_id>  (757) 
CHEMBL2046406

>  <bao_format>  (757) 
BAO_0000219

>  <data_validity_description>  (757) 
None

>  <activity_id>  (757) 
10948942

>  <standard_type>  (757) 
IC50

>  <target_chembl_id>  (757) 
CHEMBL233

>  <data_validity_comment>  (757) 
None

>  <published_value>  (757) 
0.21

>  <document_year>  (757) 
2012

>  <target_pref_name>  (757) 
Mu opioid receptor

>  <assay_chembl_id>  (757) 
CHEMBL2050643

>  <standard_relation>  (757) 
=

>  <assay_description>  (757) 
Antagonist activity at human mu opioid receptor expressed in CHO cells assessed as inhibition of DAMGO-induced [33S]GTPgammaS binding after 60 mins by scintillation counting

>  <published_relation>  (757) 
=

>  <standard_value>  (757) 
0.21

>  <qudt_units>  (757) 
http://www.openphacts.org/units/Nanomolar

>  <target_tax_id>  (757) 
9606

>  <bao_label>  (757) 
cell-based format

>  <published_units>  (757) 
nM

>  <pchembl_value>  (757) 
9.68

>  <published_type>  (757) 
IC50

>  <activity_comment>  (757) 
None

$$$$

     RDKit          

 31 36  0  0  0  0  0  0  0  0999 V2000
    0.0000    0.0000    0.0000 C   0  0  0  0  0  0  0  0  0  0  0  0
    0.0000    0.0000    0.0000 O   0  0  0  0  0  0  0  0  0  0  0  0
    0.0000    0.0000    0.0000 C   0  0  0  0  0  0  0  0  0  0  0  0
    0.0000    0.0000    0.0000 C   0  0  0  0  0  0  0  0  0  0  0  0
    0.0000    0.0000    0.0000 C   0  0  0  0  0  0  0  0  0  0  0  0
    0.0000    0.0000    0.0000 C   0  0  0  0  0  0  0  0  0  0  0  0
    0.0000    0.0000    0.0000 C   0  0  0  0  0  0  0  0  0  0  0  0
    0.0000    0.0000    0.0000 N   0  0  0  0  0  0  0  0  0  0  0  0
    0.0000    0.0000    0.0000 C   0  0  0  0  0  0  0  0  0  0  0  0
    0.0000    0.0000    0.0000 C   0  0  0  0  0  0  0  0  0  0  0  0
    0.0000    0.0000    0.0000 C   0  0  0  0  0  0  0  0  0  0  0  0
    0.0000    0.0000    0.0000 C   0  0  0  0  0  0  0  0  0  0  0  0
    0.0000    0.0000    0.0000 C   0  0  0  0  0  0  0  0  0  0  0  0
    0.0000    0.0000    0.0000 C   0  0  0  0  0  0  0  0  0  0  0  0
    0.0000    0.0000    0.0000 C   0  0  0  0  0  0  0  0  0  0  0  0
    0.0000    0.0000    0.0000 C   0  0  0  0  0  0  0  0  0  0  0  0
    0.0000    0.0000    0.0000 C   0  0  0  0  0  0  0  0  0  0  0  0
    0.0000    0.0000    0.0000 C   0  0  0  0  0  0  0  0  0  0  0  0
    0.0000    0.0000    0.0000 C   0  0  0  0  0  0  0  0  0  0  0  0
    0.0000    0.0000    0.0000 C   0  0  0  0  0  0  0  0  0  0  0  0
    0.0000    0.0000    0.0000 C   0  0  0  0  0  0  0  0  0  0  0  0
    0.0000    0.0000    0.0000 C   0  0  0  0  0  0  0  0  0  0  0  0
    0.0000    0.0000    0.0000 N   0  0  0  0  0  0  0  0  0  0  0  0
    0.0000    0.0000    0.0000 C   0  0  0  0  0  0  0  0  0  0  0  0
    0.0000    0.0000    0.0000 C   0  0  0  0  0  0  0  0  0  0  0  0
    0.0000    0.0000    0.0000 C   0  0  0  0  0  0  0  0  0  0  0  0
    0.0000    0.0000    0.0000 C   0  0  0  0  0  0  0  0  0  0  0  0
    0.0000    0.0000    0.0000 C   0  0  0  0  0  0  0  0  0  0  0  0
    0.0000    0.0000    0.0000 C   0  0  0  0  0  0  0  0  0  0  0  0
    0.0000    0.0000    0.0000 C   0  0  0  0  0  0  0  0  0  0  0  0
    0.0000    0.0000    0.0000 C   0  0  0  0  0  0  0  0  0  0  0  0
  1  2  1  0
  2  3  1  0
  3  4  2  0
  4  5  1  0
  5  6  2  0
  6  7  1  0
  7  8  1  0
  8  9  1  0
  9 10  2  0
 10 11  1  0
 11 12  2  0
 12 13  1  0
 13 14  1  0
 14 15  1  0
 15 16  1  0
 16 17  1  0
 17 18  1  0
 18 19  1  0
 19 20  1  0
 20 21  1  0
 21 22  1  0
 22 23  1  0
 23 24  1  0
 24 25  1  0
 25 26  1  0
 26 27  1  0
 20 28  1  0
 28 29  2  0
  6 30  1  0
 30 31  2  0
 31  3  1  0
 29  9  1  0
 28 12  1  0
 23 14  1  0
 20 15  1  0
 27 25  1  0
M  END
>  <pIC50>  (758) 
8.0

>  <ChEMBL_ID>  (758) 
CHEMBL568877

>  <document_journal>  (758) 
J. Med. Chem.

>  <bao_endpoint>  (758) 
BAO_0000190

>  <potential_duplicate>  (758) 
False

>  <uo_units>  (758) 
UO_0000065

>  <canonical_smiles>  (758) 
COc1ccc(CNc2ccc3C[C@@H]4[C@@H]5CCCC[C@]5(CCN4CC6CC6)c3c2)cc1

>  <parent_molecule_chembl_id>  (758) 
CHEMBL568877

>  <assay_type>  (758) 
B

>  <src_id>  (758) 
1

>  <ligand_efficiency>  (758) 
{u'le': u'0.35', u'bei': u'19.2', u'sei': u'32.65', u'lle': u'2.11'}

>  <standard_flag>  (758) 
True

>  <molecule_chembl_id>  (758) 
CHEMBL568877

>  <target_organism>  (758) 
Homo sapiens

>  <standard_units>  (758) 
nM

>  <record_id>  (758) 
1654246

>  <document_chembl_id>  (758) 
CHEMBL2046406

>  <bao_format>  (758) 
BAO_0000219

>  <data_validity_description>  (758) 
None

>  <activity_id>  (758) 
10948943

>  <standard_type>  (758) 
IC50

>  <target_chembl_id>  (758) 
CHEMBL233

>  <data_validity_comment>  (758) 
None

>  <published_value>  (758) 
10

>  <document_year>  (758) 
2012

>  <target_pref_name>  (758) 
Mu opioid receptor

>  <assay_chembl_id>  (758) 
CHEMBL2050643

>  <standard_relation>  (758) 
=

>  <assay_description>  (758) 
Antagonist activity at human mu opioid receptor expressed in CHO cells assessed as inhibition of DAMGO-induced [33S]GTPgammaS binding after 60 mins by scintillation counting

>  <published_relation>  (758) 
=

>  <standard_value>  (758) 
10

>  <qudt_units>  (758) 
http://www.openphacts.org/units/Nanomolar

>  <target_tax_id>  (758) 
9606

>  <bao_label>  (758) 
cell-based format

>  <published_units>  (758) 
nM

>  <pchembl_value>  (758) 
8

>  <published_type>  (758) 
IC50

>  <activity_comment>  (758) 
None

$$$$

     RDKit          

 31 36  0  0  0  0  0  0  0  0999 V2000
    0.0000    0.0000    0.0000 C   0  0  0  0  0  0  0  0  0  0  0  0
    0.0000    0.0000    0.0000 O   0  0  0  0  0  0  0  0  0  0  0  0
    0.0000    0.0000    0.0000 C   0  0  0  0  0  0  0  0  0  0  0  0
    0.0000    0.0000    0.0000 C   0  0  0  0  0  0  0  0  0  0  0  0
    0.0000    0.0000    0.0000 C   0  0  0  0  0  0  0  0  0  0  0  0
    0.0000    0.0000    0.0000 C   0  0  0  0  0  0  0  0  0  0  0  0
    0.0000    0.0000    0.0000 C   0  0  0  0  0  0  0  0  0  0  0  0
    0.0000    0.0000    0.0000 C   0  0  0  0  0  0  0  0  0  0  0  0
    0.0000    0.0000    0.0000 N   0  0  0  0  0  0  0  0  0  0  0  0
    0.0000    0.0000    0.0000 C   0  0  0  0  0  0  0  0  0  0  0  0
    0.0000    0.0000    0.0000 C   0  0  0  0  0  0  0  0  0  0  0  0
    0.0000    0.0000    0.0000 C   0  0  0  0  0  0  0  0  0  0  0  0
    0.0000    0.0000    0.0000 C   0  0  0  0  0  0  0  0  0  0  0  0
    0.0000    0.0000    0.0000 C   0  0  0  0  0  0  0  0  0  0  0  0
    0.0000    0.0000    0.0000 C   0  0  0  0  0  0  0  0  0  0  0  0
    0.0000    0.0000    0.0000 C   0  0  0  0  0  0  0  0  0  0  0  0
    0.0000    0.0000    0.0000 C   0  0  0  0  0  0  0  0  0  0  0  0
    0.0000    0.0000    0.0000 C   0  0  0  0  0  0  0  0  0  0  0  0
    0.0000    0.0000    0.0000 C   0  0  0  0  0  0  0  0  0  0  0  0
    0.0000    0.0000    0.0000 C   0  0  0  0  0  0  0  0  0  0  0  0
    0.0000    0.0000    0.0000 C   0  0  0  0  0  0  0  0  0  0  0  0
    0.0000    0.0000    0.0000 C   0  0  0  0  0  0  0  0  0  0  0  0
    0.0000    0.0000    0.0000 C   0  0  0  0  0  0  0  0  0  0  0  0
    0.0000    0.0000    0.0000 N   0  0  0  0  0  0  0  0  0  0  0  0
    0.0000    0.0000    0.0000 C   0  0  0  0  0  0  0  0  0  0  0  0
    0.0000    0.0000    0.0000 C   0  0  0  0  0  0  0  0  0  0  0  0
    0.0000    0.0000    0.0000 C   0  0  0  0  0  0  0  0  0  0  0  0
    0.0000    0.0000    0.0000 C   0  0  0  0  0  0  0  0  0  0  0  0
    0.0000    0.0000    0.0000 C   0  0  0  0  0  0  0  0  0  0  0  0
    0.0000    0.0000    0.0000 C   0  0  0  0  0  0  0  0  0  0  0  0
    0.0000    0.0000    0.0000 C   0  0  0  0  0  0  0  0  0  0  0  0
  1  2  1  0
  2  3  1  0
  3  4  2  0
  4  5  1  0
  5  6  2  0
  6  7  1  0
  7  8  1  0
  8  9  1  0
  9 10  1  0
 10 11  2  0
 11 12  1  0
 12 13  2  0
 13 14  1  0
 14 15  1  0
 15 16  1  0
 16 17  1  0
 17 18  1  0
 18 19  1  0
 19 20  1  0
 20 21  1  0
 21 22  1  0
 22 23  1  0
 23 24  1  0
 24 25  1  0
 25 26  1  0
 26 27  1  0
 27 28  1  0
 21 29  1  0
 29 30  2  0
  7 31  2  0
 31  3  1  0
 30 10  1  0
 29 13  1  0
 24 15  1  0
 21 16  1  0
 28 26  1  0
M  END
>  <pIC50>  (759) 
8.7

>  <ChEMBL_ID>  (759) 
CHEMBL2048765

>  <document_journal>  (759) 
J. Med. Chem.

>  <bao_endpoint>  (759) 
BAO_0000190

>  <potential_duplicate>  (759) 
False

>  <uo_units>  (759) 
UO_0000065

>  <canonical_smiles>  (759) 
COc1cccc(CNc2ccc3C[C@@H]4[C@@H]5CCCC[C@]5(CCN4CC6CC6)c3c2)c1

>  <parent_molecule_chembl_id>  (759) 
CHEMBL2048765

>  <assay_type>  (759) 
B

>  <src_id>  (759) 
1

>  <ligand_efficiency>  (759) 
{u'le': u'0.38', u'bei': u'20.88', u'sei': u'35.51', u'lle': u'2.81'}

>  <standard_flag>  (759) 
True

>  <molecule_chembl_id>  (759) 
CHEMBL2048765

>  <target_organism>  (759) 
Homo sapiens

>  <standard_units>  (759) 
nM

>  <record_id>  (759) 
1654245

>  <document_chembl_id>  (759) 
CHEMBL2046406

>  <bao_format>  (759) 
BAO_0000219

>  <data_validity_description>  (759) 
None

>  <activity_id>  (759) 
10948944

>  <standard_type>  (759) 
IC50

>  <target_chembl_id>  (759) 
CHEMBL233

>  <data_validity_comment>  (759) 
None

>  <published_value>  (759) 
2

>  <document_year>  (759) 
2012

>  <target_pref_name>  (759) 
Mu opioid receptor

>  <assay_chembl_id>  (759) 
CHEMBL2050643

>  <standard_relation>  (759) 
=

>  <assay_description>  (759) 
Antagonist activity at human mu opioid receptor expressed in CHO cells assessed as inhibition of DAMGO-induced [33S]GTPgammaS binding after 60 mins by scintillation counting

>  <published_relation>  (759) 
=

>  <standard_value>  (759) 
2

>  <qudt_units>  (759) 
http://www.openphacts.org/units/Nanomolar

>  <target_tax_id>  (759) 
9606

>  <bao_label>  (759) 
cell-based format

>  <published_units>  (759) 
nM

>  <pchembl_value>  (759) 
8.7

>  <published_type>  (759) 
IC50

>  <activity_comment>  (759) 
None

$$$$

     RDKit          

 33 39  0  0  0  0  0  0  0  0999 V2000
    0.0000    0.0000    0.0000 C   0  0  0  0  0  0  0  0  0  0  0  0
    0.0000    0.0000    0.0000 N   0  0  0  0  0  0  0  0  0  0  0  0
    0.0000    0.0000    0.0000 C   0  0  0  0  0  0  0  0  0  0  0  0
    0.0000    0.0000    0.0000 C   0  0  0  0  0  0  0  0  0  0  0  0
    0.0000    0.0000    0.0000 C   0  0  0  0  0  0  0  0  0  0  0  0
    0.0000    0.0000    0.0000 C   0  0  0  0  0  0  0  0  0  0  0  0
    0.0000    0.0000    0.0000 C   0  0  0  0  0  0  0  0  0  0  0  0
    0.0000    0.0000    0.0000 C   0  0  0  0  0  0  0  0  0  0  0  0
    0.0000    0.0000    0.0000 C   0  0  0  0  0  0  0  0  0  0  0  0
    0.0000    0.0000    0.0000 C   0  0  0  0  0  0  0  0  0  0  0  0
    0.0000    0.0000    0.0000 C   0  0  0  0  0  0  0  0  0  0  0  0
    0.0000    0.0000    0.0000 C   0  0  0  0  0  0  0  0  0  0  0  0
    0.0000    0.0000    0.0000 C   0  0  0  0  0  0  0  0  0  0  0  0
    0.0000    0.0000    0.0000 C   0  0  0  0  0  0  0  0  0  0  0  0
    0.0000    0.0000    0.0000 C   0  0  0  0  0  0  0  0  0  0  0  0
    0.0000    0.0000    0.0000 C   0  0  0  0  0  0  0  0  0  0  0  0
    0.0000    0.0000    0.0000 N   0  0  0  0  0  0  0  0  0  0  0  0
    0.0000    0.0000    0.0000 C   0  0  0  0  0  0  0  0  0  0  0  0
    0.0000    0.0000    0.0000 C   0  0  0  0  0  0  0  0  0  0  0  0
    0.0000    0.0000    0.0000 C   0  0  0  0  0  0  0  0  0  0  0  0
    0.0000    0.0000    0.0000 C   0  0  0  0  0  0  0  0  0  0  0  0
    0.0000    0.0000    0.0000 C   0  0  0  0  0  0  0  0  0  0  0  0
    0.0000    0.0000    0.0000 C   0  0  0  0  0  0  0  0  0  0  0  0
    0.0000    0.0000    0.0000 C   0  0  0  0  0  0  0  0  0  0  0  0
    0.0000    0.0000    0.0000 C   0  0  0  0  0  0  0  0  0  0  0  0
    0.0000    0.0000    0.0000 C   0  0  0  0  0  0  0  0  0  0  0  0
    0.0000    0.0000    0.0000 C   0  0  0  0  0  0  0  0  0  0  0  0
    0.0000    0.0000    0.0000 C   0  0  0  0  0  0  0  0  0  0  0  0
    0.0000    0.0000    0.0000 O   0  0  0  0  0  0  0  0  0  0  0  0
    0.0000    0.0000    0.0000 C   0  0  0  0  0  0  0  0  0  0  0  0
    0.0000    0.0000    0.0000 O   0  0  0  0  0  0  0  0  0  0  0  0
    0.0000    0.0000    0.0000 C   0  0  0  0  0  0  0  0  0  0  0  0
    0.0000    0.0000    0.0000 C   0  0  0  0  0  0  0  0  0  0  0  0
  1  2  1  0
  2  3  1  0
  3  4  2  0
  4  5  1  0
  5  6  2  0
  6  7  1  0
  7  8  1  0
  8  9  1  0
  9 10  1  0
 10 11  1  0
 11 12  1  0
 12 13  1  0
 13 14  1  0
 14 15  1  0
 15 16  1  0
 16 17  1  0
 17 18  1  0
 18 19  1  0
 19 20  1  0
 20 21  1  0
 21 22  1  0
 14 23  1  0
 23 24  2  0
  1 25  1  0
 25 26  2  0
 26 27  1  0
 27 28  2  0
 28 29  1  0
 29 30  1  0
 30 31  1  0
 31 32  1  0
 32 33  2  0
 24  3  1  0
 23  6  1  0
 17  8  1  0
 14  9  1  0
 22 19  1  0
 33 25  1  0
 32 28  1  0
M  END
>  <pIC50>  (760) 
7.03

>  <ChEMBL_ID>  (760) 
CHEMBL2048764

>  <document_journal>  (760) 
J. Med. Chem.

>  <bao_endpoint>  (760) 
BAO_0000190

>  <potential_duplicate>  (760) 
False

>  <uo_units>  (760) 
UO_0000065

>  <canonical_smiles>  (760) 
C(Nc1ccc2C[C@@H]3[C@@H]4CCCC[C@]4(CCN3CC5CCC5)c2c1)c6ccc7OCOc7c6

>  <parent_molecule_chembl_id>  (760) 
CHEMBL2048764

>  <assay_type>  (760) 
B

>  <src_id>  (760) 
1

>  <ligand_efficiency>  (760) 
{u'le': u'0.29', u'bei': u'15.8', u'sei': u'20.83', u'lle': u'0.9'}

>  <standard_flag>  (760) 
True

>  <molecule_chembl_id>  (760) 
CHEMBL2048764

>  <target_organism>  (760) 
Homo sapiens

>  <standard_units>  (760) 
nM

>  <record_id>  (760) 
1654243

>  <document_chembl_id>  (760) 
CHEMBL2046406

>  <bao_format>  (760) 
BAO_0000219

>  <data_validity_description>  (760) 
None

>  <activity_id>  (760) 
10948945

>  <standard_type>  (760) 
IC50

>  <target_chembl_id>  (760) 
CHEMBL233

>  <data_validity_comment>  (760) 
None

>  <published_value>  (760) 
94

>  <document_year>  (760) 
2012

>  <target_pref_name>  (760) 
Mu opioid receptor

>  <assay_chembl_id>  (760) 
CHEMBL2050643

>  <standard_relation>  (760) 
=

>  <assay_description>  (760) 
Antagonist activity at human mu opioid receptor expressed in CHO cells assessed as inhibition of DAMGO-induced [33S]GTPgammaS binding after 60 mins by scintillation counting

>  <published_relation>  (760) 
=

>  <standard_value>  (760) 
94

>  <qudt_units>  (760) 
http://www.openphacts.org/units/Nanomolar

>  <target_tax_id>  (760) 
9606

>  <bao_label>  (760) 
cell-based format

>  <published_units>  (760) 
nM

>  <pchembl_value>  (760) 
7.03

>  <published_type>  (760) 
IC50

>  <activity_comment>  (760) 
None

$$$$

     RDKit          

 32 37  0  0  0  0  0  0  0  0999 V2000
    0.0000    0.0000    0.0000 C   0  0  0  0  0  0  0  0  0  0  0  0
    0.0000    0.0000    0.0000 O   0  0  0  0  0  0  0  0  0  0  0  0
    0.0000    0.0000    0.0000 C   0  0  0  0  0  0  0  0  0  0  0  0
    0.0000    0.0000    0.0000 C   0  0  0  0  0  0  0  0  0  0  0  0
    0.0000    0.0000    0.0000 C   0  0  0  0  0  0  0  0  0  0  0  0
    0.0000    0.0000    0.0000 C   0  0  0  0  0  0  0  0  0  0  0  0
    0.0000    0.0000    0.0000 C   0  0  0  0  0  0  0  0  0  0  0  0
    0.0000    0.0000    0.0000 N   0  0  0  0  0  0  0  0  0  0  0  0
    0.0000    0.0000    0.0000 C   0  0  0  0  0  0  0  0  0  0  0  0
    0.0000    0.0000    0.0000 C   0  0  0  0  0  0  0  0  0  0  0  0
    0.0000    0.0000    0.0000 C   0  0  0  0  0  0  0  0  0  0  0  0
    0.0000    0.0000    0.0000 C   0  0  0  0  0  0  0  0  0  0  0  0
    0.0000    0.0000    0.0000 C   0  0  0  0  0  0  0  0  0  0  0  0
    0.0000    0.0000    0.0000 C   0  0  0  0  0  0  0  0  0  0  0  0
    0.0000    0.0000    0.0000 C   0  0  0  0  0  0  0  0  0  0  0  0
    0.0000    0.0000    0.0000 C   0  0  0  0  0  0  0  0  0  0  0  0
    0.0000    0.0000    0.0000 C   0  0  0  0  0  0  0  0  0  0  0  0
    0.0000    0.0000    0.0000 C   0  0  0  0  0  0  0  0  0  0  0  0
    0.0000    0.0000    0.0000 C   0  0  0  0  0  0  0  0  0  0  0  0
    0.0000    0.0000    0.0000 C   0  0  0  0  0  0  0  0  0  0  0  0
    0.0000    0.0000    0.0000 C   0  0  0  0  0  0  0  0  0  0  0  0
    0.0000    0.0000    0.0000 C   0  0  0  0  0  0  0  0  0  0  0  0
    0.0000    0.0000    0.0000 N   0  0  0  0  0  0  0  0  0  0  0  0
    0.0000    0.0000    0.0000 C   0  0  0  0  0  0  0  0  0  0  0  0
    0.0000    0.0000    0.0000 C   0  0  0  0  0  0  0  0  0  0  0  0
    0.0000    0.0000    0.0000 C   0  0  0  0  0  0  0  0  0  0  0  0
    0.0000    0.0000    0.0000 C   0  0  0  0  0  0  0  0  0  0  0  0
    0.0000    0.0000    0.0000 C   0  0  0  0  0  0  0  0  0  0  0  0
    0.0000    0.0000    0.0000 C   0  0  0  0  0  0  0  0  0  0  0  0
    0.0000    0.0000    0.0000 C   0  0  0  0  0  0  0  0  0  0  0  0
    0.0000    0.0000    0.0000 C   0  0  0  0  0  0  0  0  0  0  0  0
    0.0000    0.0000    0.0000 C   0  0  0  0  0  0  0  0  0  0  0  0
  1  2  1  0
  2  3  1  0
  3  4  2  0
  4  5  1  0
  5  6  2  0
  6  7  1  0
  7  8  1  0
  8  9  1  0
  9 10  2  0
 10 11  1  0
 11 12  2  0
 12 13  1  0
 13 14  1  0
 14 15  1  0
 15 16  1  0
 16 17  1  0
 17 18  1  0
 18 19  1  0
 19 20  1  0
 20 21  1  0
 21 22  1  0
 22 23  1  0
 23 24  1  0
 24 25  1  0
 25 26  1  0
 26 27  1  0
 27 28  1  0
 20 29  1  0
 29 30  2  0
  6 31  1  0
 31 32  2  0
 32  3  1  0
 30  9  1  0
 29 12  1  0
 23 14  1  0
 20 15  1  0
 28 25  1  0
M  END
>  <pIC50>  (761) 
6.82

>  <ChEMBL_ID>  (761) 
CHEMBL2048762

>  <document_journal>  (761) 
J. Med. Chem.

>  <bao_endpoint>  (761) 
BAO_0000190

>  <potential_duplicate>  (761) 
False

>  <uo_units>  (761) 
UO_0000065

>  <canonical_smiles>  (761) 
COc1ccc(CNc2ccc3C[C@@H]4[C@@H]5CCCC[C@]5(CCN4CC6CCC6)c3c2)cc1

>  <parent_molecule_chembl_id>  (761) 
CHEMBL2048762

>  <assay_type>  (761) 
B

>  <src_id>  (761) 
1

>  <ligand_efficiency>  (761) 
{u'le': u'0.29', u'bei': u'15.85', u'sei': u'27.85', u'lle': u'0.48'}

>  <standard_flag>  (761) 
True

>  <molecule_chembl_id>  (761) 
CHEMBL2048762

>  <target_organism>  (761) 
Homo sapiens

>  <standard_units>  (761) 
nM

>  <record_id>  (761) 
1654241

>  <document_chembl_id>  (761) 
CHEMBL2046406

>  <bao_format>  (761) 
BAO_0000219

>  <data_validity_description>  (761) 
None

>  <activity_id>  (761) 
10948946

>  <standard_type>  (761) 
IC50

>  <target_chembl_id>  (761) 
CHEMBL233

>  <data_validity_comment>  (761) 
None

>  <published_value>  (761) 
150

>  <document_year>  (761) 
2012

>  <target_pref_name>  (761) 
Mu opioid receptor

>  <assay_chembl_id>  (761) 
CHEMBL2050643

>  <standard_relation>  (761) 
=

>  <assay_description>  (761) 
Antagonist activity at human mu opioid receptor expressed in CHO cells assessed as inhibition of DAMGO-induced [33S]GTPgammaS binding after 60 mins by scintillation counting

>  <published_relation>  (761) 
=

>  <standard_value>  (761) 
150

>  <qudt_units>  (761) 
http://www.openphacts.org/units/Nanomolar

>  <target_tax_id>  (761) 
9606

>  <bao_label>  (761) 
cell-based format

>  <published_units>  (761) 
nM

>  <pchembl_value>  (761) 
6.82

>  <published_type>  (761) 
IC50

>  <activity_comment>  (761) 
None

$$$$

     RDKit          

 32 37  0  0  0  0  0  0  0  0999 V2000
    0.0000    0.0000    0.0000 C   0  0  0  0  0  0  0  0  0  0  0  0
    0.0000    0.0000    0.0000 O   0  0  0  0  0  0  0  0  0  0  0  0
    0.0000    0.0000    0.0000 C   0  0  0  0  0  0  0  0  0  0  0  0
    0.0000    0.0000    0.0000 C   0  0  0  0  0  0  0  0  0  0  0  0
    0.0000    0.0000    0.0000 C   0  0  0  0  0  0  0  0  0  0  0  0
    0.0000    0.0000    0.0000 C   0  0  0  0  0  0  0  0  0  0  0  0
    0.0000    0.0000    0.0000 C   0  0  0  0  0  0  0  0  0  0  0  0
    0.0000    0.0000    0.0000 C   0  0  0  0  0  0  0  0  0  0  0  0
    0.0000    0.0000    0.0000 N   0  0  0  0  0  0  0  0  0  0  0  0
    0.0000    0.0000    0.0000 C   0  0  0  0  0  0  0  0  0  0  0  0
    0.0000    0.0000    0.0000 C   0  0  0  0  0  0  0  0  0  0  0  0
    0.0000    0.0000    0.0000 C   0  0  0  0  0  0  0  0  0  0  0  0
    0.0000    0.0000    0.0000 C   0  0  0  0  0  0  0  0  0  0  0  0
    0.0000    0.0000    0.0000 C   0  0  0  0  0  0  0  0  0  0  0  0
    0.0000    0.0000    0.0000 C   0  0  0  0  0  0  0  0  0  0  0  0
    0.0000    0.0000    0.0000 C   0  0  0  0  0  0  0  0  0  0  0  0
    0.0000    0.0000    0.0000 C   0  0  0  0  0  0  0  0  0  0  0  0
    0.0000    0.0000    0.0000 C   0  0  0  0  0  0  0  0  0  0  0  0
    0.0000    0.0000    0.0000 C   0  0  0  0  0  0  0  0  0  0  0  0
    0.0000    0.0000    0.0000 C   0  0  0  0  0  0  0  0  0  0  0  0
    0.0000    0.0000    0.0000 C   0  0  0  0  0  0  0  0  0  0  0  0
    0.0000    0.0000    0.0000 C   0  0  0  0  0  0  0  0  0  0  0  0
    0.0000    0.0000    0.0000 C   0  0  0  0  0  0  0  0  0  0  0  0
    0.0000    0.0000    0.0000 N   0  0  0  0  0  0  0  0  0  0  0  0
    0.0000    0.0000    0.0000 C   0  0  0  0  0  0  0  0  0  0  0  0
    0.0000    0.0000    0.0000 C   0  0  0  0  0  0  0  0  0  0  0  0
    0.0000    0.0000    0.0000 C   0  0  0  0  0  0  0  0  0  0  0  0
    0.0000    0.0000    0.0000 C   0  0  0  0  0  0  0  0  0  0  0  0
    0.0000    0.0000    0.0000 C   0  0  0  0  0  0  0  0  0  0  0  0
    0.0000    0.0000    0.0000 C   0  0  0  0  0  0  0  0  0  0  0  0
    0.0000    0.0000    0.0000 C   0  0  0  0  0  0  0  0  0  0  0  0
    0.0000    0.0000    0.0000 C   0  0  0  0  0  0  0  0  0  0  0  0
  1  2  1  0
  2  3  1  0
  3  4  2  0
  4  5  1  0
  5  6  2  0
  6  7  1  0
  7  8  1  0
  8  9  1  0
  9 10  1  0
 10 11  2  0
 11 12  1  0
 12 13  2  0
 13 14  1  0
 14 15  1  0
 15 16  1  0
 16 17  1  0
 17 18  1  0
 18 19  1  0
 19 20  1  0
 20 21  1  0
 21 22  1  0
 22 23  1  0
 23 24  1  0
 24 25  1  0
 25 26  1  0
 26 27  1  0
 27 28  1  0
 28 29  1  0
 21 30  1  0
 30 31  2  0
  7 32  2  0
 32  3  1  0
 31 10  1  0
 30 13  1  0
 24 15  1  0
 21 16  1  0
 29 26  1  0
M  END
>  <pIC50>  (762) 
7.1

>  <ChEMBL_ID>  (762) 
CHEMBL2048761

>  <document_journal>  (762) 
J. Med. Chem.

>  <bao_endpoint>  (762) 
BAO_0000190

>  <potential_duplicate>  (762) 
False

>  <uo_units>  (762) 
UO_0000065

>  <canonical_smiles>  (762) 
COc1cccc(CNc2ccc3C[C@@H]4[C@@H]5CCCC[C@]5(CCN4CC6CCC6)c3c2)c1

>  <parent_molecule_chembl_id>  (762) 
CHEMBL2048761

>  <assay_type>  (762) 
B

>  <src_id>  (762) 
1

>  <ligand_efficiency>  (762) 
{u'le': u'0.3', u'bei': u'16.48', u'sei': u'28.97', u'lle': u'0.76'}

>  <standard_flag>  (762) 
True

>  <molecule_chembl_id>  (762) 
CHEMBL2048761

>  <target_organism>  (762) 
Homo sapiens

>  <standard_units>  (762) 
nM

>  <record_id>  (762) 
1654240

>  <document_chembl_id>  (762) 
CHEMBL2046406

>  <bao_format>  (762) 
BAO_0000219

>  <data_validity_description>  (762) 
None

>  <activity_id>  (762) 
10948947

>  <standard_type>  (762) 
IC50

>  <target_chembl_id>  (762) 
CHEMBL233

>  <data_validity_comment>  (762) 
None

>  <published_value>  (762) 
80

>  <document_year>  (762) 
2012

>  <target_pref_name>  (762) 
Mu opioid receptor

>  <assay_chembl_id>  (762) 
CHEMBL2050643

>  <standard_relation>  (762) 
=

>  <assay_description>  (762) 
Antagonist activity at human mu opioid receptor expressed in CHO cells assessed as inhibition of DAMGO-induced [33S]GTPgammaS binding after 60 mins by scintillation counting

>  <published_relation>  (762) 
=

>  <standard_value>  (762) 
80

>  <qudt_units>  (762) 
http://www.openphacts.org/units/Nanomolar

>  <target_tax_id>  (762) 
9606

>  <bao_label>  (762) 
cell-based format

>  <published_units>  (762) 
nM

>  <pchembl_value>  (762) 
7.1

>  <published_type>  (762) 
IC50

>  <activity_comment>  (762) 
None

$$$$

     RDKit          

 74 80  0  0  0  0  0  0  0  0999 V2000
    0.0000    0.0000    0.0000 N   0  0  0  0  0  0  0  0  0  0  0  0
    0.0000    0.0000    0.0000 C   0  0  0  0  0  0  0  0  0  0  0  0
    0.0000    0.0000    0.0000 O   0  0  0  0  0  0  0  0  0  0  0  0
    0.0000    0.0000    0.0000 C   0  0  0  0  0  0  0  0  0  0  0  0
    0.0000    0.0000    0.0000 C   0  0  0  0  0  0  0  0  0  0  0  0
    0.0000    0.0000    0.0000 C   0  0  0  0  0  0  0  0  0  0  0  0
    0.0000    0.0000    0.0000 C   0  0  0  0  0  0  0  0  0  0  0  0
    0.0000    0.0000    0.0000 C   0  0  0  0  0  0  0  0  0  0  0  0
    0.0000    0.0000    0.0000 C   0  0  0  0  0  0  0  0  0  0  0  0
    0.0000    0.0000    0.0000 C   0  0  0  0  0  0  0  0  0  0  0  0
    0.0000    0.0000    0.0000 C   0  0  0  0  0  0  0  0  0  0  0  0
    0.0000    0.0000    0.0000 N   0  0  0  0  0  0  0  0  0  0  0  0
    0.0000    0.0000    0.0000 C   0  0  0  0  0  0  0  0  0  0  0  0
    0.0000    0.0000    0.0000 O   0  0  0  0  0  0  0  0  0  0  0  0
    0.0000    0.0000    0.0000 C   0  0  0  0  0  0  0  0  0  0  0  0
    0.0000    0.0000    0.0000 C   0  0  0  0  0  0  0  0  0  0  0  0
    0.0000    0.0000    0.0000 C   0  0  0  0  0  0  0  0  0  0  0  0
    0.0000    0.0000    0.0000 C   0  0  0  0  0  0  0  0  0  0  0  0
    0.0000    0.0000    0.0000 N   0  0  0  0  0  0  0  0  0  0  0  0
    0.0000    0.0000    0.0000 C   0  0  0  0  0  0  0  0  0  0  0  0
    0.0000    0.0000    0.0000 C   0  0  0  0  0  0  0  0  0  0  0  0
    0.0000    0.0000    0.0000 C   0  0  0  0  0  0  0  0  0  0  0  0
    0.0000    0.0000    0.0000 C   0  0  0  0  0  0  0  0  0  0  0  0
    0.0000    0.0000    0.0000 C   0  0  0  0  0  0  0  0  0  0  0  0
    0.0000    0.0000    0.0000 C   0  0  0  0  0  0  0  0  0  0  0  0
    0.0000    0.0000    0.0000 N   0  0  0  0  0  0  0  0  0  0  0  0
    0.0000    0.0000    0.0000 C   0  0  0  0  0  0  0  0  0  0  0  0
    0.0000    0.0000    0.0000 O   0  0  0  0  0  0  0  0  0  0  0  0
    0.0000    0.0000    0.0000 C   0  0  0  0  0  0  0  0  0  0  0  0
    0.0000    0.0000    0.0000 C   0  0  0  0  0  0  0  0  0  0  0  0
    0.0000    0.0000    0.0000 C   0  0  0  0  0  0  0  0  0  0  0  0
    0.0000    0.0000    0.0000 C   0  0  0  0  0  0  0  0  0  0  0  0
    0.0000    0.0000    0.0000 N   0  0  0  0  0  0  0  0  0  0  0  0
    0.0000    0.0000    0.0000 C   0  0  0  0  0  0  0  0  0  0  0  0
    0.0000    0.0000    0.0000 O   0  0  0  0  0  0  0  0  0  0  0  0
    0.0000    0.0000    0.0000 C   0  0  0  0  0  0  0  0  0  0  0  0
    0.0000    0.0000    0.0000 C   0  0  0  0  0  0  0  0  0  0  0  0
    0.0000    0.0000    0.0000 C   0  0  0  0  0  0  0  0  0  0  0  0
    0.0000    0.0000    0.0000 C   0  0  0  0  0  0  0  0  0  0  0  0
    0.0000    0.0000    0.0000 C   0  0  0  0  0  0  0  0  0  0  0  0
    0.0000    0.0000    0.0000 C   0  0  0  0  0  0  0  0  0  0  0  0
    0.0000    0.0000    0.0000 O   0  0  0  0  0  0  0  0  0  0  0  0
    0.0000    0.0000    0.0000 C   0  0  0  0  0  0  0  0  0  0  0  0
    0.0000    0.0000    0.0000 C   0  0  0  0  0  0  0  0  0  0  0  0
    0.0000    0.0000    0.0000 N   0  0  0  0  0  0  0  0  0  0  0  0
    0.0000    0.0000    0.0000 C   0  0  0  0  0  0  0  0  0  0  0  0
    0.0000    0.0000    0.0000 O   0  0  0  0  0  0  0  0  0  0  0  0
    0.0000    0.0000    0.0000 C   0  0  0  0  0  0  0  0  0  0  0  0
    0.0000    0.0000    0.0000 C   0  0  0  0  0  0  0  0  0  0  0  0
    0.0000    0.0000    0.0000 C   0  0  0  0  0  0  0  0  0  0  0  0
    0.0000    0.0000    0.0000 O   0  0  0  0  0  0  0  0  0  0  0  0
    0.0000    0.0000    0.0000 N   0  0  0  0  0  0  0  0  0  0  0  0
    0.0000    0.0000    0.0000 C   0  0  0  0  0  0  0  0  0  0  0  0
    0.0000    0.0000    0.0000 O   0  0  0  0  0  0  0  0  0  0  0  0
    0.0000    0.0000    0.0000 C   0  0  0  0  0  0  0  0  0  0  0  0
    0.0000    0.0000    0.0000 C   0  0  0  0  0  0  0  0  0  0  0  0
    0.0000    0.0000    0.0000 O   0  0  0  0  0  0  0  0  0  0  0  0
    0.0000    0.0000    0.0000 C   0  0  0  0  0  0  0  0  0  0  0  0
    0.0000    0.0000    0.0000 O   0  0  0  0  0  0  0  0  0  0  0  0
    0.0000    0.0000    0.0000 C   0  0  0  0  0  0  0  0  0  0  0  0
    0.0000    0.0000    0.0000 O   0  0  0  0  0  0  0  0  0  0  0  0
    0.0000    0.0000    0.0000 C   0  0  0  0  0  0  0  0  0  0  0  0
    0.0000    0.0000    0.0000 C   0  0  0  0  0  0  0  0  0  0  0  0
    0.0000    0.0000    0.0000 O   0  0  0  0  0  0  0  0  0  0  0  0
    0.0000    0.0000    0.0000 C   0  0  0  0  0  0  0  0  0  0  0  0
    0.0000    0.0000    0.0000 O   0  0  0  0  0  0  0  0  0  0  0  0
    0.0000    0.0000    0.0000 C   0  0  0  0  0  0  0  0  0  0  0  0
    0.0000    0.0000    0.0000 O   0  0  0  0  0  0  0  0  0  0  0  0
    0.0000    0.0000    0.0000 C   0  0  0  0  0  0  0  0  0  0  0  0
    0.0000    0.0000    0.0000 O   0  0  0  0  0  0  0  0  0  0  0  0
    0.0000    0.0000    0.0000 C   0  0  0  0  0  0  0  0  0  0  0  0
    0.0000    0.0000    0.0000 O   0  0  0  0  0  0  0  0  0  0  0  0
    0.0000    0.0000    0.0000 C   0  0  0  0  0  0  0  0  0  0  0  0
    0.0000    0.0000    0.0000 O   0  0  0  0  0  0  0  0  0  0  0  0
  1  2  1  0
  2  3  2  0
  2  4  1  0
  4  5  1  0
  5  6  1  0
  6  7  2  0
  7  8  1  0
  8  9  2  0
  9 10  1  0
 10 11  2  0
  4 12  1  0
 12 13  1  0
 13 14  2  0
 13 15  1  0
 15 16  1  0
 16 17  1  0
 17 18  2  0
 18 19  1  0
 19 20  1  0
 20 21  2  0
 21 22  1  0
 22 23  2  0
 23 24  1  0
 24 25  2  0
 15 26  1  0
 26 27  1  0
 27 28  2  0
 27 29  1  0
 29 30  1  0
 30 31  1  0
 31 32  1  0
 32 33  1  0
 33 34  1  0
 34 35  2  0
 34 36  1  0
 36 37  1  0
 37 38  1  0
 38 39  2  0
 39 40  1  0
 40 41  2  0
 41 42  1  0
 41 43  1  0
 43 44  2  0
 36 45  1  0
 45 46  1  0
 46 47  2  0
 46 48  1  0
 48 49  1  0
 49 50  1  0
 50 51  2  0
 50 52  1  0
 52 53  1  0
 53 54  1  0
 54 55  1  0
 55 56  1  0
 56 57  1  0
 55 58  1  0
 58 59  1  0
 59 60  1  0
 60 61  1  0
 61 62  1  0
 62 63  1  0
 63 64  1  0
 62 65  1  0
 65 66  1  0
 65 67  1  0
 67 68  1  0
 67 69  1  0
 69 70  1  0
 58 71  1  0
 71 72  1  0
 71 73  1  0
 73 74  1  0
 11  6  1  0
 25 17  1  0
 25 20  1  0
 33 29  1  0
 44 38  1  0
 73 53  1  0
 69 60  1  0
M  END
>  <pIC50>  (763) 
6.23

>  <ChEMBL_ID>  (763) 
CHEMBL2158990

>  <document_journal>  (763) 
J. Med. Chem.

>  <bao_endpoint>  (763) 
BAO_0000190

>  <potential_duplicate>  (763) 
False

>  <uo_units>  (763) 
UO_0000065

>  <canonical_smiles>  (763) 
NC(=O)[C@H](Cc1ccccc1)NC(=O)[C@H](Cc2c[nH]c3ccccc23)NC(=O)[C@@H]4CCCN4C(=O)[C@H](Cc5ccc(O)cc5)NC(=O)CCC(=O)N[C@@H]6O[C@H](CO)[C@@H](O[C@@H]7O[C@H](CO)[C@H](O)[C@H](O)[C@H]7O)[C@H](O)[C@H]6O

>  <parent_molecule_chembl_id>  (763) 
CHEMBL2158990

>  <assay_type>  (763) 
F

>  <src_id>  (763) 
1

>  <ligand_efficiency>  (763) 
None

>  <standard_flag>  (763) 
True

>  <molecule_chembl_id>  (763) 
CHEMBL2158990

>  <target_organism>  (763) 
Homo sapiens

>  <standard_units>  (763) 
nM

>  <record_id>  (763) 
1734013

>  <document_chembl_id>  (763) 
CHEMBL2157939

>  <bao_format>  (763) 
BAO_0000219

>  <data_validity_description>  (763) 
None

>  <activity_id>  (763) 
12065939

>  <standard_type>  (763) 
IC50

>  <target_chembl_id>  (763) 
CHEMBL233

>  <data_validity_comment>  (763) 
None

>  <published_value>  (763) 
590.2

>  <document_year>  (763) 
2012

>  <target_pref_name>  (763) 
Mu opioid receptor

>  <assay_chembl_id>  (763) 
CHEMBL2161363

>  <standard_relation>  (763) 
=

>  <assay_description>  (763) 
Agonist activity at mu-opioid receptor in human SH-SY5Y cells assessed as inhibition of forskolin-stimulated cAMP accumulation after 30 mins by immunoassay

>  <published_relation>  (763) 
=

>  <standard_value>  (763) 
590.2

>  <qudt_units>  (763) 
http://www.openphacts.org/units/Nanomolar

>  <target_tax_id>  (763) 
9606

>  <bao_label>  (763) 
cell-based format

>  <published_units>  (763) 
nM

>  <pchembl_value>  (763) 
6.23

>  <published_type>  (763) 
IC50

>  <activity_comment>  (763) 
None

$$$$

     RDKit          

 47 48  0  0  0  0  0  0  0  0999 V2000
    0.0000    0.0000    0.0000 C   0  0  0  0  0  0  0  0  0  0  0  0
    0.0000    0.0000    0.0000 C   0  0  0  0  0  0  0  0  0  0  0  0
    0.0000    0.0000    0.0000 C   0  0  0  0  0  0  0  0  0  0  0  0
    0.0000    0.0000    0.0000 C   0  0  0  0  0  0  0  0  0  0  0  0
    0.0000    0.0000    0.0000 C   0  0  0  0  0  0  0  0  0  0  0  0
    0.0000    0.0000    0.0000 C   0  0  0  0  0  0  0  0  0  0  0  0
    0.0000    0.0000    0.0000 N   0  0  0  0  0  0  0  0  0  0  0  0
    0.0000    0.0000    0.0000 C   0  0  0  0  0  0  0  0  0  0  0  0
    0.0000    0.0000    0.0000 O   0  0  0  0  0  0  0  0  0  0  0  0
    0.0000    0.0000    0.0000 C   0  0  0  0  0  0  0  0  0  0  0  0
    0.0000    0.0000    0.0000 C   0  0  0  0  0  0  0  0  0  0  0  0
    0.0000    0.0000    0.0000 N   0  0  0  0  0  0  0  0  0  0  0  0
    0.0000    0.0000    0.0000 C   0  0  0  0  0  0  0  0  0  0  0  0
    0.0000    0.0000    0.0000 C   0  0  0  0  0  0  0  0  0  0  0  0
    0.0000    0.0000    0.0000 N   0  0  0  0  0  0  0  0  0  0  0  0
    0.0000    0.0000    0.0000 C   0  0  0  0  0  0  0  0  0  0  0  0
    0.0000    0.0000    0.0000 C   0  0  0  0  0  0  0  0  0  0  0  0
    0.0000    0.0000    0.0000 N   0  0  0  0  0  0  0  0  0  0  0  0
    0.0000    0.0000    0.0000 C   0  0  0  0  0  0  0  0  0  0  0  0
    0.0000    0.0000    0.0000 O   0  0  0  0  0  0  0  0  0  0  0  0
    0.0000    0.0000    0.0000 C   0  0  0  0  0  0  0  0  0  0  0  0
    0.0000    0.0000    0.0000 C   0  0  0  0  0  0  0  0  0  0  0  0
    0.0000    0.0000    0.0000 N   0  0  0  0  0  0  0  0  0  0  0  0
    0.0000    0.0000    0.0000 C   0  0  0  0  0  0  0  0  0  0  0  0
    0.0000    0.0000    0.0000 C   0  0  0  0  0  0  0  0  0  0  0  0
    0.0000    0.0000    0.0000 C   0  0  0  0  0  0  0  0  0  0  0  0
    0.0000    0.0000    0.0000 C   0  0  0  0  0  0  0  0  0  0  0  0
    0.0000    0.0000    0.0000 C   0  0  0  0  0  0  0  0  0  0  0  0
    0.0000    0.0000    0.0000 O   0  0  0  0  0  0  0  0  0  0  0  0
    0.0000    0.0000    0.0000 C   0  0  0  0  0  0  0  0  0  0  0  0
    0.0000    0.0000    0.0000 C   0  0  0  0  0  0  0  0  0  0  0  0
    0.0000    0.0000    0.0000 C   0  0  0  0  0  0  0  0  0  0  0  0
    0.0000    0.0000    0.0000 O   0  0  0  0  0  0  0  0  0  0  0  0
    0.0000    0.0000    0.0000 C   0  0  0  0  0  0  0  0  0  0  0  0
    0.0000    0.0000    0.0000 O   0  0  0  0  0  0  0  0  0  0  0  0
    0.0000    0.0000    0.0000 C   0  0  0  0  0  0  0  0  0  0  0  0
    0.0000    0.0000    0.0000 C   0  0  0  0  0  0  0  0  0  0  0  0
    0.0000    0.0000    0.0000 C   0  0  0  0  0  0  0  0  0  0  0  0
    0.0000    0.0000    0.0000 C   0  0  0  0  0  0  0  0  0  0  0  0
    0.0000    0.0000    0.0000 C   0  0  0  0  0  0  0  0  0  0  0  0
    0.0000    0.0000    0.0000 C   0  0  0  0  0  0  0  0  0  0  0  0
    0.0000    0.0000    0.0000 C   0  0  0  0  0  0  0  0  0  0  0  0
    0.0000    0.0000    0.0000 N   0  0  0  0  0  0  0  0  0  0  0  0
    0.0000    0.0000    0.0000 S   0  0  0  0  0  0  0  0  0  0  0  0
    0.0000    0.0000    0.0000 O   0  0  0  0  0  0  0  0  0  0  0  0
    0.0000    0.0000    0.0000 O   0  0  0  0  0  0  0  0  0  0  0  0
    0.0000    0.0000    0.0000 C   0  0  0  0  0  0  0  0  0  0  0  0
  1  2  1  0
  2  3  1  0
  2  4  1  0
  4  5  1  0
  5  6  1  0
  6  7  1  0
  7  8  1  0
  8  9  2  0
  7 10  1  0
 10 11  1  0
 11 12  1  0
 12 13  1  0
 13 14  1  0
 14 15  1  0
 15 16  1  0
 16 17  1  0
 17 18  1  0
 18 19  1  0
 19 20  2  0
 18 21  1  0
 21 22  1  0
 22 23  1  0
 21 24  1  0
 24 25  1  0
 25 26  2  0
 26 27  1  0
 27 28  2  0
 28 29  1  0
 28 30  1  0
 30 31  2  0
 15 32  1  0
 32 33  2  0
 12 34  1  0
 34 35  2  0
 10 36  1  0
 36 37  1  0
 37 38  2  0
 38 39  1  0
 39 40  2  0
 40 41  1  0
 41 42  2  0
  5 43  1  0
 43 44  1  0
 44 45  2  0
 44 46  2  0
 44 47  1  0
 31 25  1  0
 42 37  1  0
M  END
>  <pIC50>  (764) 
5.5

>  <ChEMBL_ID>  (764) 
CHEMBL2158541

>  <document_journal>  (764) 
Bioorg. Med. Chem. Lett.

>  <bao_endpoint>  (764) 
BAO_0000190

>  <potential_duplicate>  (764) 
False

>  <uo_units>  (764) 
UO_0000065

>  <canonical_smiles>  (764) 
CC(C)C[C@H](CN(C=O)[C@@H](CN(CCN(CCN(C=O)[C@@H](CN)Cc1ccc(O)cc1)C=O)C=O)Cc2ccccc2)NS(=O)(=O)C

>  <parent_molecule_chembl_id>  (764) 
CHEMBL2158541

>  <assay_type>  (764) 
B

>  <src_id>  (764) 
1

>  <ligand_efficiency>  (764) 
{u'le': u'0.16', u'bei': u'8.14', u'sei': u'3.02', u'lle': u'4.64'}

>  <standard_flag>  (764) 
True

>  <molecule_chembl_id>  (764) 
CHEMBL2158541

>  <target_organism>  (764) 
Homo sapiens

>  <standard_units>  (764) 
nM

>  <record_id>  (764) 
1733493

>  <document_chembl_id>  (764) 
CHEMBL2157908

>  <bao_format>  (764) 
BAO_0000219

>  <data_validity_description>  (764) 
None

>  <activity_id>  (764) 
12073273

>  <standard_type>  (764) 
IC50

>  <target_chembl_id>  (764) 
CHEMBL233

>  <data_validity_comment>  (764) 
None

>  <published_value>  (764) 
3.2

>  <document_year>  (764) 
2012

>  <target_pref_name>  (764) 
Mu opioid receptor

>  <assay_chembl_id>  (764) 
CHEMBL2162310

>  <standard_relation>  (764) 
=

>  <assay_description>  (764) 
Displacement of [3H]DAMGO from human recombinant mu-opioid receptor expressed in CHO cells after 60 mins by liquid scintillation assay

>  <published_relation>  (764) 
=

>  <standard_value>  (764) 
3200

>  <qudt_units>  (764) 
http://www.openphacts.org/units/Nanomolar

>  <target_tax_id>  (764) 
9606

>  <bao_label>  (764) 
cell-based format

>  <published_units>  (764) 
uM

>  <pchembl_value>  (764) 
5.5

>  <published_type>  (764) 
IC50

>  <activity_comment>  (764) 
None

$$$$

     RDKit          

 88 93  0  0  0  0  0  0  0  0999 V2000
    0.0000    0.0000    0.0000 C   0  0  0  0  0  0  0  0  0  0  0  0
    0.0000    0.0000    0.0000 C   0  0  0  0  0  0  0  0  0  0  0  0
    0.0000    0.0000    0.0000 C   0  0  0  0  0  0  0  0  0  0  0  0
    0.0000    0.0000    0.0000 C   0  0  0  0  0  0  0  0  0  0  0  0
    0.0000    0.0000    0.0000 C   0  0  0  0  0  0  0  0  0  0  0  0
    0.0000    0.0000    0.0000 C   0  0  0  0  0  0  0  0  0  0  0  0
    0.0000    0.0000    0.0000 C   0  0  0  0  0  0  0  0  0  0  0  0
    0.0000    0.0000    0.0000 C   0  0  0  0  0  0  0  0  0  0  0  0
    0.0000    0.0000    0.0000 C   0  0  0  0  0  0  0  0  0  0  0  0
    0.0000    0.0000    0.0000 N   0  0  0  0  0  0  0  0  0  0  0  0
    0.0000    0.0000    0.0000 C   0  0  0  0  0  0  0  0  0  0  0  0
    0.0000    0.0000    0.0000 O   0  0  0  0  0  0  0  0  0  0  0  0
    0.0000    0.0000    0.0000 N   0  0  0  0  0  0  0  0  0  0  0  0
    0.0000    0.0000    0.0000 C   0  0  0  0  0  0  0  0  0  0  0  0
    0.0000    0.0000    0.0000 C   0  0  0  0  0  0  0  0  0  0  0  0
    0.0000    0.0000    0.0000 C   0  0  0  0  0  0  0  0  0  0  0  0
    0.0000    0.0000    0.0000 C   0  0  0  0  0  0  0  0  0  0  0  0
    0.0000    0.0000    0.0000 C   0  0  0  0  0  0  0  0  0  0  0  0
    0.0000    0.0000    0.0000 C   0  0  0  0  0  0  0  0  0  0  0  0
    0.0000    0.0000    0.0000 O   0  0  0  0  0  0  0  0  0  0  0  0
    0.0000    0.0000    0.0000 C   0  0  0  0  0  0  0  0  0  0  0  0
    0.0000    0.0000    0.0000 C   0  0  0  0  0  0  0  0  0  0  0  0
    0.0000    0.0000    0.0000 C   0  0  0  0  0  0  0  0  0  0  0  0
    0.0000    0.0000    0.0000 O   0  0  0  0  0  0  0  0  0  0  0  0
    0.0000    0.0000    0.0000 N   0  0  0  0  0  0  0  0  0  0  0  0
    0.0000    0.0000    0.0000 C   0  0  0  0  0  0  0  0  0  0  0  0
    0.0000    0.0000    0.0000 C   0  0  0  0  0  0  0  0  0  0  0  0
    0.0000    0.0000    0.0000 C   0  0  0  0  0  0  0  0  0  0  0  0
    0.0000    0.0000    0.0000 C   0  0  0  0  0  0  0  0  0  0  0  0
    0.0000    0.0000    0.0000 C   0  0  0  0  0  0  0  0  0  0  0  0
    0.0000    0.0000    0.0000 O   0  0  0  0  0  0  0  0  0  0  0  0
    0.0000    0.0000    0.0000 N   0  0  0  0  0  0  0  0  0  0  0  0
    0.0000    0.0000    0.0000 C   0  0  0  0  0  0  0  0  0  0  0  0
    0.0000    0.0000    0.0000 C   0  0  0  0  0  0  0  0  0  0  0  0
    0.0000    0.0000    0.0000 C   0  0  0  0  0  0  0  0  0  0  0  0
    0.0000    0.0000    0.0000 C   0  0  0  0  0  0  0  0  0  0  0  0
    0.0000    0.0000    0.0000 N   0  0  0  0  0  0  0  0  0  0  0  0
    0.0000    0.0000    0.0000 C   0  0  0  0  0  0  0  0  0  0  0  0
    0.0000    0.0000    0.0000 C   0  0  0  0  0  0  0  0  0  0  0  0
    0.0000    0.0000    0.0000 C   0  0  0  0  0  0  0  0  0  0  0  0
    0.0000    0.0000    0.0000 C   0  0  0  0  0  0  0  0  0  0  0  0
    0.0000    0.0000    0.0000 C   0  0  0  0  0  0  0  0  0  0  0  0
    0.0000    0.0000    0.0000 C   0  0  0  0  0  0  0  0  0  0  0  0
    0.0000    0.0000    0.0000 C   0  0  0  0  0  0  0  0  0  0  0  0
    0.0000    0.0000    0.0000 O   0  0  0  0  0  0  0  0  0  0  0  0
    0.0000    0.0000    0.0000 N   0  0  0  0  0  0  0  0  0  0  0  0
    0.0000    0.0000    0.0000 C   0  0  0  0  0  0  0  0  0  0  0  0
    0.0000    0.0000    0.0000 C   0  0  0  0  0  0  0  0  0  0  0  0
    0.0000    0.0000    0.0000 C   0  0  0  0  0  0  0  0  0  0  0  0
    0.0000    0.0000    0.0000 C   0  0  0  0  0  0  0  0  0  0  0  0
    0.0000    0.0000    0.0000 C   0  0  0  0  0  0  0  0  0  0  0  0
    0.0000    0.0000    0.0000 C   0  0  0  0  0  0  0  0  0  0  0  0
    0.0000    0.0000    0.0000 C   0  0  0  0  0  0  0  0  0  0  0  0
    0.0000    0.0000    0.0000 C   0  0  0  0  0  0  0  0  0  0  0  0
    0.0000    0.0000    0.0000 C   0  0  0  0  0  0  0  0  0  0  0  0
    0.0000    0.0000    0.0000 O   0  0  0  0  0  0  0  0  0  0  0  0
    0.0000    0.0000    0.0000 N   0  0  0  0  0  0  0  0  0  0  0  0
    0.0000    0.0000    0.0000 C   0  0  0  0  0  0  0  0  0  0  0  0
    0.0000    0.0000    0.0000 C   0  0  0  0  0  0  0  0  0  0  0  0
    0.0000    0.0000    0.0000 C   0  0  0  0  0  0  0  0  0  0  0  0
    0.0000    0.0000    0.0000 C   0  0  0  0  0  0  0  0  0  0  0  0
    0.0000    0.0000    0.0000 C   0  0  0  0  0  0  0  0  0  0  0  0
    0.0000    0.0000    0.0000 C   0  0  0  0  0  0  0  0  0  0  0  0
    0.0000    0.0000    0.0000 C   0  0  0  0  0  0  0  0  0  0  0  0
    0.0000    0.0000    0.0000 C   0  0  0  0  0  0  0  0  0  0  0  0
    0.0000    0.0000    0.0000 C   0  0  0  0  0  0  0  0  0  0  0  0
    0.0000    0.0000    0.0000 O   0  0  0  0  0  0  0  0  0  0  0  0
    0.0000    0.0000    0.0000 N   0  0  0  0  0  0  0  0  0  0  0  0
    0.0000    0.0000    0.0000 C   0  0  0  0  0  0  0  0  0  0  0  0
    0.0000    0.0000    0.0000 C   0  0  0  0  0  0  0  0  0  0  0  0
    0.0000    0.0000    0.0000 O   0  0  0  0  0  0  0  0  0  0  0  0
    0.0000    0.0000    0.0000 N   0  0  0  0  0  0  0  0  0  0  0  0
    0.0000    0.0000    0.0000 C   0  0  0  0  0  0  0  0  0  0  0  0
    0.0000    0.0000    0.0000 C   0  0  0  0  0  0  0  0  0  0  0  0
    0.0000    0.0000    0.0000 C   0  0  0  0  0  0  0  0  0  0  0  0
    0.0000    0.0000    0.0000 C   0  0  0  0  0  0  0  0  0  0  0  0
    0.0000    0.0000    0.0000 C   0  0  0  0  0  0  0  0  0  0  0  0
    0.0000    0.0000    0.0000 C   0  0  0  0  0  0  0  0  0  0  0  0
    0.0000    0.0000    0.0000 O   0  0  0  0  0  0  0  0  0  0  0  0
    0.0000    0.0000    0.0000 N   0  0  0  0  0  0  0  0  0  0  0  0
    0.0000    0.0000    0.0000 C   0  0  0  0  0  0  0  0  0  0  0  0
    0.0000    0.0000    0.0000 C   0  0  0  0  0  0  0  0  0  0  0  0
    0.0000    0.0000    0.0000 C   0  0  0  0  0  0  0  0  0  0  0  0
    0.0000    0.0000    0.0000 S   0  0  0  0  0  0  0  0  0  0  0  0
    0.0000    0.0000    0.0000 C   0  0  0  0  0  0  0  0  0  0  0  0
    0.0000    0.0000    0.0000 C   0  0  0  0  0  0  0  0  0  0  0  0
    0.0000    0.0000    0.0000 O   0  0  0  0  0  0  0  0  0  0  0  0
    0.0000    0.0000    0.0000 N   0  0  0  0  0  0  0  0  0  0  0  0
  1  2  1  0
  2  3  1  0
  3  4  1  0
  4  5  1  0
  5  6  1  0
  6  7  1  0
  7  8  1  0
  8  9  1  0
  9 10  1  0
  9 11  1  0
 11 12  2  0
 11 13  1  0
 13 14  1  0
 14 15  1  0
 15 16  1  0
 16 17  2  0
 17 18  1  0
 18 19  2  0
 19 20  1  0
 19 21  1  0
 21 22  2  0
 14 23  1  0
 23 24  2  0
 23 25  1  0
 25 26  1  0
 26 27  1  0
 27 28  1  0
 28 29  1  0
 29 30  1  0
 30 31  2  0
 30 32  1  0
 32 33  1  0
 33 34  1  0
 34 35  1  0
 35 36  2  0
 36 37  1  0
 37 38  1  0
 38 39  2  0
 39 40  1  0
 40 41  2  0
 41 42  1  0
 42 43  2  0
 33 44  1  0
 44 45  2  0
 44 46  1  0
 46 47  1  0
 47 48  1  0
 48 49  1  0
 49 50  2  0
 50 51  1  0
 51 52  2  0
 52 53  1  0
 53 54  2  0
 47 55  1  0
 55 56  2  0
 55 57  1  0
 57 58  1  0
 58 59  1  0
 59 60  1  0
 60 61  2  0
 61 62  1  0
 62 63  2  0
 63 64  1  0
 64 65  2  0
 58 66  1  0
 66 67  2  0
 66 68  1  0
 68 69  1  0
 69 70  1  0
 70 71  2  0
 70 72  1  0
 72 73  1  0
 73 74  1  0
 74 75  1  0
 75 76  1  0
 75 77  1  0
 73 78  1  0
 78 79  2  0
 78 80  1  0
 80 81  1  0
 81 82  1  0
 82 83  1  0
 83 84  1  0
 84 85  1  0
 81 86  1  0
 86 87  2  0
 86 88  1  0
 22 16  1  0
 29 25  1  0
 43 35  1  0
 43 38  1  0
 54 49  1  0
 65 60  1  0
M  END
>  <pIC50>  (765) 
7.35

>  <ChEMBL_ID>  (765) 
CHEMBL2158958

>  <document_journal>  (765) 
Bioorg. Med. Chem.

>  <bao_endpoint>  (765) 
BAO_0000190

>  <potential_duplicate>  (765) 
False

>  <uo_units>  (765) 
UO_0000065

>  <canonical_smiles>  (765) 
CCCCCCCCC(N)C(=O)N[C@@H](Cc1ccc(O)cc1)C(=O)N2CCC[C@H]2C(=O)N[C@@H](Cc3c[nH]c4ccccc34)C(=O)N[C@@H](Cc5ccccc5)C(=O)N[C@@H](Cc6ccccc6)C(=O)NCC(=O)N[C@@H](CC(C)C)C(=O)N[C@@H](CCSC)C(=O)N

>  <parent_molecule_chembl_id>  (765) 
CHEMBL2158958

>  <assay_type>  (765) 
F

>  <src_id>  (765) 
1

>  <ligand_efficiency>  (765) 
None

>  <standard_flag>  (765) 
True

>  <molecule_chembl_id>  (765) 
CHEMBL2158958

>  <target_organism>  (765) 
Homo sapiens

>  <standard_units>  (765) 
nM

>  <record_id>  (765) 
1733974

>  <document_chembl_id>  (765) 
CHEMBL2157899

>  <bao_format>  (765) 
BAO_0000219

>  <data_validity_description>  (765) 
None

>  <activity_id>  (765) 
12076910

>  <standard_type>  (765) 
IC50

>  <target_chembl_id>  (765) 
CHEMBL233

>  <data_validity_comment>  (765) 
None

>  <published_value>  (765) 
45

>  <document_year>  (765) 
2012

>  <target_pref_name>  (765) 
Mu opioid receptor

>  <assay_chembl_id>  (765) 
CHEMBL2162350

>  <standard_relation>  (765) 
=

>  <assay_description>  (765) 
Agonist activity at MOP receptor expressed in CHO-K1 cells assessed as inhibition of forskolin-stimulated cAMP accumulation after 30 mins

>  <published_relation>  (765) 
=

>  <standard_value>  (765) 
45

>  <qudt_units>  (765) 
http://www.openphacts.org/units/Nanomolar

>  <target_tax_id>  (765) 
9606

>  <bao_label>  (765) 
cell-based format

>  <published_units>  (765) 
nM

>  <pchembl_value>  (765) 
7.35

>  <published_type>  (765) 
IC50

>  <activity_comment>  (765) 
None

$$$$

     RDKit          

 76 81  0  0  0  0  0  0  0  0999 V2000
    0.0000    0.0000    0.0000 C   0  0  0  0  0  0  0  0  0  0  0  0
    0.0000    0.0000    0.0000 S   0  0  0  0  0  0  0  0  0  0  0  0
    0.0000    0.0000    0.0000 C   0  0  0  0  0  0  0  0  0  0  0  0
    0.0000    0.0000    0.0000 C   0  0  0  0  0  0  0  0  0  0  0  0
    0.0000    0.0000    0.0000 C   0  0  0  0  0  0  0  0  0  0  0  0
    0.0000    0.0000    0.0000 N   0  0  0  0  0  0  0  0  0  0  0  0
    0.0000    0.0000    0.0000 C   0  0  0  0  0  0  0  0  0  0  0  0
    0.0000    0.0000    0.0000 O   0  0  0  0  0  0  0  0  0  0  0  0
    0.0000    0.0000    0.0000 C   0  0  0  0  0  0  0  0  0  0  0  0
    0.0000    0.0000    0.0000 C   0  0  0  0  0  0  0  0  0  0  0  0
    0.0000    0.0000    0.0000 C   0  0  0  0  0  0  0  0  0  0  0  0
    0.0000    0.0000    0.0000 C   0  0  0  0  0  0  0  0  0  0  0  0
    0.0000    0.0000    0.0000 C   0  0  0  0  0  0  0  0  0  0  0  0
    0.0000    0.0000    0.0000 N   0  0  0  0  0  0  0  0  0  0  0  0
    0.0000    0.0000    0.0000 C   0  0  0  0  0  0  0  0  0  0  0  0
    0.0000    0.0000    0.0000 O   0  0  0  0  0  0  0  0  0  0  0  0
    0.0000    0.0000    0.0000 C   0  0  0  0  0  0  0  0  0  0  0  0
    0.0000    0.0000    0.0000 N   0  0  0  0  0  0  0  0  0  0  0  0
    0.0000    0.0000    0.0000 C   0  0  0  0  0  0  0  0  0  0  0  0
    0.0000    0.0000    0.0000 O   0  0  0  0  0  0  0  0  0  0  0  0
    0.0000    0.0000    0.0000 C   0  0  0  0  0  0  0  0  0  0  0  0
    0.0000    0.0000    0.0000 C   0  0  0  0  0  0  0  0  0  0  0  0
    0.0000    0.0000    0.0000 C   0  0  0  0  0  0  0  0  0  0  0  0
    0.0000    0.0000    0.0000 C   0  0  0  0  0  0  0  0  0  0  0  0
    0.0000    0.0000    0.0000 C   0  0  0  0  0  0  0  0  0  0  0  0
    0.0000    0.0000    0.0000 C   0  0  0  0  0  0  0  0  0  0  0  0
    0.0000    0.0000    0.0000 C   0  0  0  0  0  0  0  0  0  0  0  0
    0.0000    0.0000    0.0000 C   0  0  0  0  0  0  0  0  0  0  0  0
    0.0000    0.0000    0.0000 N   0  0  0  0  0  0  0  0  0  0  0  0
    0.0000    0.0000    0.0000 C   0  0  0  0  0  0  0  0  0  0  0  0
    0.0000    0.0000    0.0000 O   0  0  0  0  0  0  0  0  0  0  0  0
    0.0000    0.0000    0.0000 C   0  0  0  0  0  0  0  0  0  0  0  0
    0.0000    0.0000    0.0000 C   0  0  0  0  0  0  0  0  0  0  0  0
    0.0000    0.0000    0.0000 C   0  0  0  0  0  0  0  0  0  0  0  0
    0.0000    0.0000    0.0000 C   0  0  0  0  0  0  0  0  0  0  0  0
    0.0000    0.0000    0.0000 C   0  0  0  0  0  0  0  0  0  0  0  0
    0.0000    0.0000    0.0000 C   0  0  0  0  0  0  0  0  0  0  0  0
    0.0000    0.0000    0.0000 C   0  0  0  0  0  0  0  0  0  0  0  0
    0.0000    0.0000    0.0000 C   0  0  0  0  0  0  0  0  0  0  0  0
    0.0000    0.0000    0.0000 N   0  0  0  0  0  0  0  0  0  0  0  0
    0.0000    0.0000    0.0000 C   0  0  0  0  0  0  0  0  0  0  0  0
    0.0000    0.0000    0.0000 O   0  0  0  0  0  0  0  0  0  0  0  0
    0.0000    0.0000    0.0000 C   0  0  0  0  0  0  0  0  0  0  0  0
    0.0000    0.0000    0.0000 C   0  0  0  0  0  0  0  0  0  0  0  0
    0.0000    0.0000    0.0000 C   0  0  0  0  0  0  0  0  0  0  0  0
    0.0000    0.0000    0.0000 C   0  0  0  0  0  0  0  0  0  0  0  0
    0.0000    0.0000    0.0000 N   0  0  0  0  0  0  0  0  0  0  0  0
    0.0000    0.0000    0.0000 C   0  0  0  0  0  0  0  0  0  0  0  0
    0.0000    0.0000    0.0000 C   0  0  0  0  0  0  0  0  0  0  0  0
    0.0000    0.0000    0.0000 C   0  0  0  0  0  0  0  0  0  0  0  0
    0.0000    0.0000    0.0000 C   0  0  0  0  0  0  0  0  0  0  0  0
    0.0000    0.0000    0.0000 C   0  0  0  0  0  0  0  0  0  0  0  0
    0.0000    0.0000    0.0000 C   0  0  0  0  0  0  0  0  0  0  0  0
    0.0000    0.0000    0.0000 N   0  0  0  0  0  0  0  0  0  0  0  0
    0.0000    0.0000    0.0000 C   0  0  0  0  0  0  0  0  0  0  0  0
    0.0000    0.0000    0.0000 O   0  0  0  0  0  0  0  0  0  0  0  0
    0.0000    0.0000    0.0000 C   0  0  0  0  0  0  0  0  0  0  0  0
    0.0000    0.0000    0.0000 C   0  0  0  0  0  0  0  0  0  0  0  0
    0.0000    0.0000    0.0000 C   0  0  0  0  0  0  0  0  0  0  0  0
    0.0000    0.0000    0.0000 C   0  0  0  0  0  0  0  0  0  0  0  0
    0.0000    0.0000    0.0000 N   0  0  0  0  0  0  0  0  0  0  0  0
    0.0000    0.0000    0.0000 C   0  0  0  0  0  0  0  0  0  0  0  0
    0.0000    0.0000    0.0000 O   0  0  0  0  0  0  0  0  0  0  0  0
    0.0000    0.0000    0.0000 C   0  0  0  0  0  0  0  0  0  0  0  0
    0.0000    0.0000    0.0000 N   0  0  0  0  0  0  0  0  0  0  0  0
    0.0000    0.0000    0.0000 C   0  0  0  0  0  0  0  0  0  0  0  0
    0.0000    0.0000    0.0000 C   0  0  0  0  0  0  0  0  0  0  0  0
    0.0000    0.0000    0.0000 C   0  0  0  0  0  0  0  0  0  0  0  0
    0.0000    0.0000    0.0000 C   0  0  0  0  0  0  0  0  0  0  0  0
    0.0000    0.0000    0.0000 C   0  0  0  0  0  0  0  0  0  0  0  0
    0.0000    0.0000    0.0000 O   0  0  0  0  0  0  0  0  0  0  0  0
    0.0000    0.0000    0.0000 C   0  0  0  0  0  0  0  0  0  0  0  0
    0.0000    0.0000    0.0000 C   0  0  0  0  0  0  0  0  0  0  0  0
    0.0000    0.0000    0.0000 C   0  0  0  0  0  0  0  0  0  0  0  0
    0.0000    0.0000    0.0000 O   0  0  0  0  0  0  0  0  0  0  0  0
    0.0000    0.0000    0.0000 N   0  0  0  0  0  0  0  0  0  0  0  0
  1  2  1  0
  2  3  1  0
  3  4  1  0
  4  5  1  0
  5  6  1  0
  6  7  1  0
  7  8  2  0
  7  9  1  0
  9 10  1  0
 10 11  1  0
 11 12  1  0
 11 13  1  0
  9 14  1  0
 14 15  1  0
 15 16  2  0
 15 17  1  0
 17 18  1  0
 18 19  1  0
 19 20  2  0
 19 21  1  0
 21 22  1  0
 22 23  1  0
 23 24  2  0
 24 25  1  0
 25 26  2  0
 26 27  1  0
 27 28  2  0
 21 29  1  0
 29 30  1  0
 30 31  2  0
 30 32  1  0
 32 33  1  0
 33 34  1  0
 34 35  2  0
 35 36  1  0
 36 37  2  0
 37 38  1  0
 38 39  2  0
 32 40  1  0
 40 41  1  0
 41 42  2  0
 41 43  1  0
 43 44  1  0
 44 45  1  0
 45 46  2  0
 46 47  1  0
 47 48  1  0
 48 49  2  0
 49 50  1  0
 50 51  2  0
 51 52  1  0
 52 53  2  0
 43 54  1  0
 54 55  1  0
 55 56  2  0
 55 57  1  0
 57 58  1  0
 58 59  1  0
 59 60  1  0
 60 61  1  0
 61 62  1  0
 62 63  2  0
 62 64  1  0
 64 65  1  0
 64 66  1  0
 66 67  1  0
 67 68  2  0
 68 69  1  0
 69 70  2  0
 70 71  1  0
 70 72  1  0
 72 73  2  0
  5 74  1  0
 74 75  2  0
 74 76  1  0
 28 23  1  0
 39 34  1  0
 53 45  1  0
 53 48  1  0
 61 57  1  0
 73 67  1  0
M  END
>  <pIC50>  (766) 
7.92

>  <ChEMBL_ID>  (766) 
CHEMBL2158957

>  <document_journal>  (766) 
Bioorg. Med. Chem.

>  <bao_endpoint>  (766) 
BAO_0000190

>  <potential_duplicate>  (766) 
False

>  <uo_units>  (766) 
UO_0000065

>  <canonical_smiles>  (766) 
CSCC[C@H](NC(=O)[C@H](CC(C)C)NC(=O)CNC(=O)[C@H](Cc1ccccc1)NC(=O)[C@H](Cc2ccccc2)NC(=O)[C@H](Cc3c[nH]c4ccccc34)NC(=O)[C@@H]5CCCN5C(=O)[C@@H](N)Cc6ccc(O)cc6)C(=O)N

>  <parent_molecule_chembl_id>  (766) 
CHEMBL2158957

>  <assay_type>  (766) 
F

>  <src_id>  (766) 
1

>  <ligand_efficiency>  (766) 
None

>  <standard_flag>  (766) 
True

>  <molecule_chembl_id>  (766) 
CHEMBL2158957

>  <target_organism>  (766) 
Homo sapiens

>  <standard_units>  (766) 
nM

>  <record_id>  (766) 
1733973

>  <document_chembl_id>  (766) 
CHEMBL2157899

>  <bao_format>  (766) 
BAO_0000219

>  <data_validity_description>  (766) 
None

>  <activity_id>  (766) 
12076911

>  <standard_type>  (766) 
IC50

>  <target_chembl_id>  (766) 
CHEMBL233

>  <data_validity_comment>  (766) 
None

>  <published_value>  (766) 
12

>  <document_year>  (766) 
2012

>  <target_pref_name>  (766) 
Mu opioid receptor

>  <assay_chembl_id>  (766) 
CHEMBL2162350

>  <standard_relation>  (766) 
=

>  <assay_description>  (766) 
Agonist activity at MOP receptor expressed in CHO-K1 cells assessed as inhibition of forskolin-stimulated cAMP accumulation after 30 mins

>  <published_relation>  (766) 
=

>  <standard_value>  (766) 
12

>  <qudt_units>  (766) 
http://www.openphacts.org/units/Nanomolar

>  <target_tax_id>  (766) 
9606

>  <bao_label>  (766) 
cell-based format

>  <published_units>  (766) 
nM

>  <pchembl_value>  (766) 
7.92

>  <published_type>  (766) 
IC50

>  <activity_comment>  (766) 
None

$$$$

     RDKit          

 33 35  0  0  0  0  0  0  0  0999 V2000
    0.0000    0.0000    0.0000 C   0  0  0  0  0  0  0  0  0  0  0  0
    0.0000    0.0000    0.0000 C   0  0  0  0  0  0  0  0  0  0  0  0
    0.0000    0.0000    0.0000 O   0  0  0  0  0  0  0  0  0  0  0  0
    0.0000    0.0000    0.0000 N   0  0  0  0  0  0  0  0  0  0  0  0
    0.0000    0.0000    0.0000 C   0  0  0  0  0  0  0  0  0  0  0  0
    0.0000    0.0000    0.0000 C   0  0  0  0  0  0  0  0  0  0  0  0
    0.0000    0.0000    0.0000 C   0  0  0  0  0  0  0  0  0  0  0  0
    0.0000    0.0000    0.0000 C   0  0  0  0  0  0  0  0  0  0  0  0
    0.0000    0.0000    0.0000 N   0  0  0  0  0  0  0  0  0  0  0  0
    0.0000    0.0000    0.0000 C   0  0  0  0  0  0  0  0  0  0  0  0
    0.0000    0.0000    0.0000 C   0  0  0  0  0  0  0  0  0  0  0  0
    0.0000    0.0000    0.0000 C   0  0  0  0  0  0  0  0  0  0  0  0
    0.0000    0.0000    0.0000 C   0  0  0  0  0  0  0  0  0  0  0  0
    0.0000    0.0000    0.0000 C   0  0  0  0  0  0  0  0  0  0  0  0
    0.0000    0.0000    0.0000 C   0  0  0  0  0  0  0  0  0  0  0  0
    0.0000    0.0000    0.0000 C   0  0  0  0  0  0  0  0  0  0  0  0
    0.0000    0.0000    0.0000 O   0  0  0  0  0  0  0  0  0  0  0  0
    0.0000    0.0000    0.0000 N   0  0  0  0  0  0  0  0  0  0  0  0
    0.0000    0.0000    0.0000 C   0  0  0  0  0  0  0  0  0  0  0  0
    0.0000    0.0000    0.0000 C   0  0  0  0  0  0  0  0  0  0  0  0
    0.0000    0.0000    0.0000 C   0  0  0  0  0  0  0  0  0  0  0  0
    0.0000    0.0000    0.0000 C   0  0  0  0  0  0  0  0  0  0  0  0
    0.0000    0.0000    0.0000 C   0  0  0  0  0  0  0  0  0  0  0  0
    0.0000    0.0000    0.0000 C   0  0  0  0  0  0  0  0  0  0  0  0
    0.0000    0.0000    0.0000 C   0  0  0  0  0  0  0  0  0  0  0  0
    0.0000    0.0000    0.0000 C   0  0  0  0  0  0  0  0  0  0  0  0
    0.0000    0.0000    0.0000 C   0  0  0  0  0  0  0  0  0  0  0  0
    0.0000    0.0000    0.0000 O   0  0  0  0  0  0  0  0  0  0  0  0
    0.0000    0.0000    0.0000 N   0  0  0  0  0  0  0  0  0  0  0  0
    0.0000    0.0000    0.0000 C   0  0  0  0  0  0  0  0  0  0  0  0
    0.0000    0.0000    0.0000 C   0  0  0  0  0  0  0  0  0  0  0  0
    0.0000    0.0000    0.0000 O   0  0  0  0  0  0  0  0  0  0  0  0
    0.0000    0.0000    0.0000 N   0  0  0  0  0  0  0  0  0  0  0  0
  1  2  1  0
  2  3  2  0
  2  4  1  0
  4  5  1  0
  5  6  1  0
  6  7  1  0
  7  8  2  0
  8  9  1  0
  9 10  1  0
 10 11  2  0
 11 12  1  0
 12 13  2  0
 13 14  1  0
 14 15  2  0
  5 16  1  0
 16 17  2  0
 16 18  1  0
 18 19  1  0
 19 20  1  0
 20 21  1  0
 21 22  2  0
 22 23  1  0
 23 24  2  0
 24 25  1  0
 25 26  2  0
 19 27  1  0
 27 28  2  0
 27 29  1  0
 29 30  1  0
 30 31  1  0
 31 32  2  0
 31 33  1  0
 15  7  1  0
 15 10  1  0
 26 21  1  0
M  END
>  <pIC50>  (767) 
6.7

>  <ChEMBL_ID>  (767) 
CHEMBL2178733

>  <document_journal>  (767) 
J. Med. Chem.

>  <bao_endpoint>  (767) 
BAO_0000190

>  <potential_duplicate>  (767) 
False

>  <uo_units>  (767) 
UO_0000065

>  <canonical_smiles>  (767) 
CC(=O)N[C@H](Cc1c[nH]c2ccccc12)C(=O)N[C@@H](Cc3ccccc3)C(=O)NCC(=O)N

>  <parent_molecule_chembl_id>  (767) 
CHEMBL2178733

>  <assay_type>  (767) 
F

>  <src_id>  (767) 
1

>  <ligand_efficiency>  (767) 
None

>  <standard_flag>  (767) 
True

>  <molecule_chembl_id>  (767) 
CHEMBL2178733

>  <target_organism>  (767) 
Homo sapiens

>  <standard_units>  (767) 
nM

>  <record_id>  (767) 
1751684

>  <document_chembl_id>  (767) 
CHEMBL2177066

>  <bao_format>  (767) 
BAO_0000219

>  <data_validity_description>  (767) 
None

>  <activity_id>  (767) 
12140012

>  <standard_type>  (767) 
IC50

>  <target_chembl_id>  (767) 
CHEMBL233

>  <data_validity_comment>  (767) 
None

>  <published_value>  (767) 
200

>  <document_year>  (767) 
2012

>  <target_pref_name>  (767) 
Mu opioid receptor

>  <assay_chembl_id>  (767) 
CHEMBL2183868

>  <standard_relation>  (767) 
=

>  <assay_description>  (767) 
Partial agonist activity at human MOR expressed in HEK293 cells assessed as inhibition of forskolin-induced cAMP accumulation after 15 mins by cAMP EIA

>  <published_relation>  (767) 
=

>  <standard_value>  (767) 
200

>  <qudt_units>  (767) 
http://www.openphacts.org/units/Nanomolar

>  <target_tax_id>  (767) 
9606

>  <bao_label>  (767) 
cell-based format

>  <published_units>  (767) 
nM

>  <pchembl_value>  (767) 
6.7

>  <published_type>  (767) 
IC50

>  <activity_comment>  (767) 
None

$$$$

     RDKit          

 38 41  0  0  0  0  0  0  0  0999 V2000
    0.0000    0.0000    0.0000 N   0  0  0  0  0  0  0  0  0  0  0  0
    0.0000    0.0000    0.0000 C   0  0  0  0  0  0  0  0  0  0  0  0
    0.0000    0.0000    0.0000 O   0  0  0  0  0  0  0  0  0  0  0  0
    0.0000    0.0000    0.0000 C   0  0  0  0  0  0  0  0  0  0  0  0
    0.0000    0.0000    0.0000 C   0  0  0  0  0  0  0  0  0  0  0  0
    0.0000    0.0000    0.0000 C   0  0  0  0  0  0  0  0  0  0  0  0
    0.0000    0.0000    0.0000 O   0  0  0  0  0  0  0  0  0  0  0  0
    0.0000    0.0000    0.0000 N   0  0  0  0  0  0  0  0  0  0  0  0
    0.0000    0.0000    0.0000 C   0  0  0  0  0  0  0  0  0  0  0  0
    0.0000    0.0000    0.0000 C   0  0  0  0  0  0  0  0  0  0  0  0
    0.0000    0.0000    0.0000 C   0  0  0  0  0  0  0  0  0  0  0  0
    0.0000    0.0000    0.0000 O   0  0  0  0  0  0  0  0  0  0  0  0
    0.0000    0.0000    0.0000 N   0  0  0  0  0  0  0  0  0  0  0  0
    0.0000    0.0000    0.0000 C   0  0  0  0  0  0  0  0  0  0  0  0
    0.0000    0.0000    0.0000 C   0  0  0  0  0  0  0  0  0  0  0  0
    0.0000    0.0000    0.0000 C   0  0  0  0  0  0  0  0  0  0  0  0
    0.0000    0.0000    0.0000 C   0  0  0  0  0  0  0  0  0  0  0  0
    0.0000    0.0000    0.0000 N   0  0  0  0  0  0  0  0  0  0  0  0
    0.0000    0.0000    0.0000 C   0  0  0  0  0  0  0  0  0  0  0  0
    0.0000    0.0000    0.0000 C   0  0  0  0  0  0  0  0  0  0  0  0
    0.0000    0.0000    0.0000 C   0  0  0  0  0  0  0  0  0  0  0  0
    0.0000    0.0000    0.0000 C   0  0  0  0  0  0  0  0  0  0  0  0
    0.0000    0.0000    0.0000 C   0  0  0  0  0  0  0  0  0  0  0  0
    0.0000    0.0000    0.0000 C   0  0  0  0  0  0  0  0  0  0  0  0
    0.0000    0.0000    0.0000 C   0  0  0  0  0  0  0  0  0  0  0  0
    0.0000    0.0000    0.0000 O   0  0  0  0  0  0  0  0  0  0  0  0
    0.0000    0.0000    0.0000 N   0  0  0  0  0  0  0  0  0  0  0  0
    0.0000    0.0000    0.0000 C   0  0  0  0  0  0  0  0  0  0  0  0
    0.0000    0.0000    0.0000 C   0  0  0  0  0  0  0  0  0  0  0  0
    0.0000    0.0000    0.0000 C   0  0  0  0  0  0  0  0  0  0  0  0
    0.0000    0.0000    0.0000 C   0  0  0  0  0  0  0  0  0  0  0  0
    0.0000    0.0000    0.0000 C   0  0  0  0  0  0  0  0  0  0  0  0
    0.0000    0.0000    0.0000 C   0  0  0  0  0  0  0  0  0  0  0  0
    0.0000    0.0000    0.0000 C   0  0  0  0  0  0  0  0  0  0  0  0
    0.0000    0.0000    0.0000 C   0  0  0  0  0  0  0  0  0  0  0  0
    0.0000    0.0000    0.0000 C   0  0  0  0  0  0  0  0  0  0  0  0
    0.0000    0.0000    0.0000 O   0  0  0  0  0  0  0  0  0  0  0  0
    0.0000    0.0000    0.0000 N   0  0  0  0  0  0  0  0  0  0  0  0
  1  2  1  0
  2  3  2  0
  2  4  1  0
  4  5  1  0
  5  6  1  0
  6  7  2  0
  6  8  1  0
  8  9  1  0
  9 10  1  0
 10 11  1  0
 11 12  2  0
 11 13  1  0
 13 14  1  0
 14 15  1  0
 15 16  1  0
 16 17  2  0
 17 18  1  0
 18 19  1  0
 19 20  2  0
 20 21  1  0
 21 22  2  0
 22 23  1  0
 23 24  2  0
 14 25  1  0
 25 26  2  0
 25 27  1  0
 27 28  1  0
 28 29  1  0
 29 30  1  0
 30 31  2  0
 31 32  1  0
 32 33  2  0
 33 34  1  0
 34 35  2  0
 28 36  1  0
 36 37  2  0
 36 38  1  0
 38  4  1  0
 24 16  1  0
 24 19  1  0
 35 30  1  0
M  END
>  <pIC50>  (768) 
7.43

>  <ChEMBL_ID>  (768) 
CHEMBL2178731

>  <document_journal>  (768) 
J. Med. Chem.

>  <bao_endpoint>  (768) 
BAO_0000190

>  <potential_duplicate>  (768) 
False

>  <uo_units>  (768) 
UO_0000065

>  <canonical_smiles>  (768) 
NC(=O)[C@H]1CC(=O)NCCC(=O)N[C@H](Cc2c[nH]c3ccccc23)C(=O)N[C@@H](Cc4ccccc4)C(=O)N1

>  <parent_molecule_chembl_id>  (768) 
CHEMBL2178731

>  <assay_type>  (768) 
F

>  <src_id>  (768) 
1

>  <ligand_efficiency>  (768) 
None

>  <standard_flag>  (768) 
True

>  <molecule_chembl_id>  (768) 
CHEMBL2178731

>  <target_organism>  (768) 
Homo sapiens

>  <standard_units>  (768) 
nM

>  <record_id>  (768) 
1751682

>  <document_chembl_id>  (768) 
CHEMBL2177066

>  <bao_format>  (768) 
BAO_0000219

>  <data_validity_description>  (768) 
None

>  <activity_id>  (768) 
12140017

>  <standard_type>  (768) 
IC50

>  <target_chembl_id>  (768) 
CHEMBL233

>  <data_validity_comment>  (768) 
None

>  <published_value>  (768) 
37

>  <document_year>  (768) 
2012

>  <target_pref_name>  (768) 
Mu opioid receptor

>  <assay_chembl_id>  (768) 
CHEMBL2183870

>  <standard_relation>  (768) 
=

>  <assay_description>  (768) 
Agonist activity at human MOR expressed in HEK293 cells assessed as inhibition of forskolin-induced cAMP accumulation after 15 mins by cAMP EIA

>  <published_relation>  (768) 
=

>  <standard_value>  (768) 
37

>  <qudt_units>  (768) 
http://www.openphacts.org/units/Nanomolar

>  <target_tax_id>  (768) 
9606

>  <bao_label>  (768) 
cell-based format

>  <published_units>  (768) 
nM

>  <pchembl_value>  (768) 
7.43

>  <published_type>  (768) 
IC50

>  <activity_comment>  (768) 
None

$$$$

     RDKit          

 36 41  0  0  0  0  0  0  0  0999 V2000
    0.0000    0.0000    0.0000 C   0  0  0  0  0  0  0  0  0  0  0  0
    0.0000    0.0000    0.0000 O   0  0  0  0  0  0  0  0  0  0  0  0
    0.0000    0.0000    0.0000 C   0  0  0  0  0  0  0  0  0  0  0  0
    0.0000    0.0000    0.0000 C   0  0  0  0  0  0  0  0  0  0  0  0
    0.0000    0.0000    0.0000 C   0  0  0  0  0  0  0  0  0  0  0  0
    0.0000    0.0000    0.0000 C   0  0  0  0  0  0  0  0  0  0  0  0
    0.0000    0.0000    0.0000 C   0  0  0  0  0  0  0  0  0  0  0  0
    0.0000    0.0000    0.0000 C   0  0  0  0  0  0  0  0  0  0  0  0
    0.0000    0.0000    0.0000 C   0  0  0  0  0  0  0  0  0  0  0  0
    0.0000    0.0000    0.0000 C   0  0  0  0  0  0  0  0  0  0  0  0
    0.0000    0.0000    0.0000 N   0  0  0  0  0  0  0  0  0  0  0  0
    0.0000    0.0000    0.0000 C   0  0  0  0  0  0  0  0  0  0  0  0
    0.0000    0.0000    0.0000 O   0  0  0  0  0  0  0  0  0  0  0  0
    0.0000    0.0000    0.0000 C   0  0  0  0  0  0  0  0  0  0  0  0
    0.0000    0.0000    0.0000 C   0  0  0  0  0  0  0  0  0  0  0  0
    0.0000    0.0000    0.0000 C   0  0  0  0  0  0  0  0  0  0  0  0
    0.0000    0.0000    0.0000 C   0  0  0  0  0  0  0  0  0  0  0  0
    0.0000    0.0000    0.0000 C   0  0  0  0  0  0  0  0  0  0  0  0
    0.0000    0.0000    0.0000 C   0  0  0  0  0  0  0  0  0  0  0  0
    0.0000    0.0000    0.0000 C   0  0  0  0  0  0  0  0  0  0  0  0
    0.0000    0.0000    0.0000 C   0  0  0  0  0  0  0  0  0  0  0  0
    0.0000    0.0000    0.0000 C   0  0  0  0  0  0  0  0  0  0  0  0
    0.0000    0.0000    0.0000 C   0  0  0  0  0  0  0  0  0  0  0  0
    0.0000    0.0000    0.0000 C   0  0  0  0  0  0  0  0  0  0  0  0
    0.0000    0.0000    0.0000 C   0  0  0  0  0  0  0  0  0  0  0  0
    0.0000    0.0000    0.0000 N   0  0  0  0  0  0  0  0  0  0  0  0
    0.0000    0.0000    0.0000 C   0  0  0  0  0  0  0  0  0  0  0  0
    0.0000    0.0000    0.0000 C   0  0  0  0  0  0  0  0  0  0  0  0
    0.0000    0.0000    0.0000 C   0  0  0  0  0  0  0  0  0  0  0  0
    0.0000    0.0000    0.0000 C   0  0  0  0  0  0  0  0  0  0  0  0
    0.0000    0.0000    0.0000 C   0  0  0  0  0  0  0  0  0  0  0  0
    0.0000    0.0000    0.0000 C   0  0  0  0  0  0  0  0  0  0  0  0
    0.0000    0.0000    0.0000 C   0  0  0  0  0  0  0  0  0  0  0  0
    0.0000    0.0000    0.0000 C   0  0  0  0  0  0  0  0  0  0  0  0
    0.0000    0.0000    0.0000 C   0  0  0  0  0  0  0  0  0  0  0  0
    0.0000    0.0000    0.0000 C   0  0  0  0  0  0  0  0  0  0  0  0
  1  2  1  0
  2  3  1  0
  3  4  2  0
  4  5  1  0
  5  6  2  0
  6  7  1  0
  7  8  2  0
  8  9  1  0
  9 10  1  0
 10 11  1  0
 11 12  1  0
 12 13  2  0
 12 14  1  0
 14 15  2  0
 15 16  1  0
 16 17  2  0
 17 18  1  0
 18 19  1  0
 19 20  1  0
 20 21  1  0
 20 22  1  0
 22 23  1  0
 22 24  1  0
 24 25  1  0
 25 26  1  0
 26 27  1  0
 27 28  1  0
 28 29  1  0
 29 30  1  0
 22 31  1  0
 31 32  2  0
  8 33  1  0
 33 34  2  0
 34 35  1  0
 35 36  2  0
 36  3  1  0
 35  6  1  0
 32 14  1  0
 31 17  1  0
 26 19  1  0
 30 28  1  0
M  END
>  <pIC50>  (769) 
7.35

>  <ChEMBL_ID>  (769) 
CHEMBL2208354

>  <document_journal>  (769) 
Bioorg. Med. Chem. Lett.

>  <bao_endpoint>  (769) 
BAO_0000190

>  <potential_duplicate>  (769) 
False

>  <uo_units>  (769) 
UO_0000065

>  <canonical_smiles>  (769) 
COc1ccc2cc(CCNC(=O)c3ccc4CC5C(C)C(C)(CCN5CC6CC6)c4c3)ccc2c1

>  <parent_molecule_chembl_id>  (769) 
CHEMBL2208354

>  <assay_type>  (769) 
F

>  <src_id>  (769) 
1

>  <ligand_efficiency>  (769) 
None

>  <standard_flag>  (769) 
True

>  <molecule_chembl_id>  (769) 
CHEMBL2208354

>  <target_organism>  (769) 
Homo sapiens

>  <standard_units>  (769) 
nM

>  <record_id>  (769) 
1762303

>  <document_chembl_id>  (769) 
CHEMBL2203245

>  <bao_format>  (769) 
BAO_0000219

>  <data_validity_description>  (769) 
None

>  <activity_id>  (769) 
12203597

>  <standard_type>  (769) 
IC50

>  <target_chembl_id>  (769) 
CHEMBL233

>  <data_validity_comment>  (769) 
None

>  <published_value>  (769) 
45

>  <document_year>  (769) 
2012

>  <target_pref_name>  (769) 
Mu opioid receptor

>  <assay_chembl_id>  (769) 
CHEMBL2213834

>  <standard_relation>  (769) 
=

>  <assay_description>  (769) 
Antagonist activity at human mu opioid receptor expressed in CHO cells assessed as inhibition of DAMGO-induced [35S]GTPgammaS binding after 60 mins by scintillation counting

>  <published_relation>  (769) 
=

>  <standard_value>  (769) 
45

>  <qudt_units>  (769) 
http://www.openphacts.org/units/Nanomolar

>  <target_tax_id>  (769) 
9606

>  <bao_label>  (769) 
cell-based format

>  <published_units>  (769) 
nM

>  <pchembl_value>  (769) 
7.35

>  <published_type>  (769) 
IC50

>  <activity_comment>  (769) 
None

$$$$

     RDKit          

 39 44  0  0  0  0  0  0  0  0999 V2000
    0.0000    0.0000    0.0000 C   0  0  0  0  0  0  0  0  0  0  0  0
    0.0000    0.0000    0.0000 O   0  0  0  0  0  0  0  0  0  0  0  0
    0.0000    0.0000    0.0000 C   0  0  0  0  0  0  0  0  0  0  0  0
    0.0000    0.0000    0.0000 C   0  0  0  0  0  0  0  0  0  0  0  0
    0.0000    0.0000    0.0000 C   0  0  0  0  0  0  0  0  0  0  0  0
    0.0000    0.0000    0.0000 C   0  0  0  0  0  0  0  0  0  0  0  0
    0.0000    0.0000    0.0000 C   0  0  0  0  0  0  0  0  0  0  0  0
    0.0000    0.0000    0.0000 C   0  0  0  0  0  0  0  0  0  0  0  0
    0.0000    0.0000    0.0000 C   0  0  0  0  0  0  0  0  0  0  0  0
    0.0000    0.0000    0.0000 C   0  0  0  0  0  0  0  0  0  0  0  0
    0.0000    0.0000    0.0000 C   0  0  0  0  0  0  0  0  0  0  0  0
    0.0000    0.0000    0.0000 C   0  0  0  0  0  0  0  0  0  0  0  0
    0.0000    0.0000    0.0000 C   0  0  0  0  0  0  0  0  0  0  0  0
    0.0000    0.0000    0.0000 C   0  0  0  0  0  0  0  0  0  0  0  0
    0.0000    0.0000    0.0000 C   0  0  0  0  0  0  0  0  0  0  0  0
    0.0000    0.0000    0.0000 N   0  0  0  0  0  0  0  0  0  0  0  0
    0.0000    0.0000    0.0000 C   0  0  0  0  0  0  0  0  0  0  0  0
    0.0000    0.0000    0.0000 O   0  0  0  0  0  0  0  0  0  0  0  0
    0.0000    0.0000    0.0000 C   0  0  0  0  0  0  0  0  0  0  0  0
    0.0000    0.0000    0.0000 C   0  0  0  0  0  0  0  0  0  0  0  0
    0.0000    0.0000    0.0000 C   0  0  0  0  0  0  0  0  0  0  0  0
    0.0000    0.0000    0.0000 C   0  0  0  0  0  0  0  0  0  0  0  0
    0.0000    0.0000    0.0000 C   0  0  0  0  0  0  0  0  0  0  0  0
    0.0000    0.0000    0.0000 C   0  0  0  0  0  0  0  0  0  0  0  0
    0.0000    0.0000    0.0000 C   0  0  0  0  0  0  0  0  0  0  0  0
    0.0000    0.0000    0.0000 C   0  0  0  0  0  0  0  0  0  0  0  0
    0.0000    0.0000    0.0000 C   0  0  0  0  0  0  0  0  0  0  0  0
    0.0000    0.0000    0.0000 C   0  0  0  0  0  0  0  0  0  0  0  0
    0.0000    0.0000    0.0000 C   0  0  0  0  0  0  0  0  0  0  0  0
    0.0000    0.0000    0.0000 C   0  0  0  0  0  0  0  0  0  0  0  0
    0.0000    0.0000    0.0000 N   0  0  0  0  0  0  0  0  0  0  0  0
    0.0000    0.0000    0.0000 C   0  0  0  0  0  0  0  0  0  0  0  0
    0.0000    0.0000    0.0000 C   0  0  0  0  0  0  0  0  0  0  0  0
    0.0000    0.0000    0.0000 C   0  0  0  0  0  0  0  0  0  0  0  0
    0.0000    0.0000    0.0000 C   0  0  0  0  0  0  0  0  0  0  0  0
    0.0000    0.0000    0.0000 C   0  0  0  0  0  0  0  0  0  0  0  0
    0.0000    0.0000    0.0000 C   0  0  0  0  0  0  0  0  0  0  0  0
    0.0000    0.0000    0.0000 C   0  0  0  0  0  0  0  0  0  0  0  0
    0.0000    0.0000    0.0000 C   0  0  0  0  0  0  0  0  0  0  0  0
  1  2  1  0
  2  3  1  0
  3  4  2  0
  4  5  1  0
  5  6  2  0
  6  7  1  0
  7  8  2  0
  8  9  1  0
  6 10  1  0
 10 11  2  0
 11 12  1  0
 12 13  2  0
 13 14  1  0
 14 15  1  0
 15 16  1  0
 16 17  1  0
 17 18  2  0
 17 19  1  0
 19 20  2  0
 20 21  1  0
 21 22  2  0
 22 23  1  0
 23 24  1  0
 24 25  1  0
 25 26  1  0
 25 27  1  0
 27 28  1  0
 27 29  1  0
 29 30  1  0
 30 31  1  0
 31 32  1  0
 32 33  1  0
 33 34  1  0
 34 35  1  0
 27 36  1  0
 36 37  2  0
 13 38  1  0
 38 39  2  0
  8  3  1  0
 39 10  1  0
 37 19  1  0
 36 22  1  0
 31 24  1  0
 35 33  1  0
M  END
>  <pIC50>  (770) 
7.52

>  <ChEMBL_ID>  (770) 
CHEMBL2208352

>  <document_journal>  (770) 
Bioorg. Med. Chem. Lett.

>  <bao_endpoint>  (770) 
BAO_0000190

>  <potential_duplicate>  (770) 
False

>  <uo_units>  (770) 
UO_0000065

>  <canonical_smiles>  (770) 
COc1ccc(cc1C)c2ccc(CCNC(=O)c3ccc4CC5C(C)C(C)(CCN5CC6CC6)c4c3)cc2

>  <parent_molecule_chembl_id>  (770) 
CHEMBL2208352

>  <assay_type>  (770) 
F

>  <src_id>  (770) 
1

>  <ligand_efficiency>  (770) 
None

>  <standard_flag>  (770) 
True

>  <molecule_chembl_id>  (770) 
CHEMBL2208352

>  <target_organism>  (770) 
Homo sapiens

>  <standard_units>  (770) 
nM

>  <record_id>  (770) 
1762301

>  <document_chembl_id>  (770) 
CHEMBL2203245

>  <bao_format>  (770) 
BAO_0000219

>  <data_validity_description>  (770) 
None

>  <activity_id>  (770) 
12203598

>  <standard_type>  (770) 
IC50

>  <target_chembl_id>  (770) 
CHEMBL233

>  <data_validity_comment>  (770) 
None

>  <published_value>  (770) 
30

>  <document_year>  (770) 
2012

>  <target_pref_name>  (770) 
Mu opioid receptor

>  <assay_chembl_id>  (770) 
CHEMBL2213834

>  <standard_relation>  (770) 
=

>  <assay_description>  (770) 
Antagonist activity at human mu opioid receptor expressed in CHO cells assessed as inhibition of DAMGO-induced [35S]GTPgammaS binding after 60 mins by scintillation counting

>  <published_relation>  (770) 
=

>  <standard_value>  (770) 
30

>  <qudt_units>  (770) 
http://www.openphacts.org/units/Nanomolar

>  <target_tax_id>  (770) 
9606

>  <bao_label>  (770) 
cell-based format

>  <published_units>  (770) 
nM

>  <pchembl_value>  (770) 
7.52

>  <published_type>  (770) 
IC50

>  <activity_comment>  (770) 
None

$$$$

     RDKit          

 39 45  0  0  0  0  0  0  0  0999 V2000
    0.0000    0.0000    0.0000 C   0  0  0  0  0  0  0  0  0  0  0  0
    0.0000    0.0000    0.0000 C   0  0  0  0  0  0  0  0  0  0  0  0
    0.0000    0.0000    0.0000 C   0  0  0  0  0  0  0  0  0  0  0  0
    0.0000    0.0000    0.0000 C   0  0  0  0  0  0  0  0  0  0  0  0
    0.0000    0.0000    0.0000 C   0  0  0  0  0  0  0  0  0  0  0  0
    0.0000    0.0000    0.0000 C   0  0  0  0  0  0  0  0  0  0  0  0
    0.0000    0.0000    0.0000 C   0  0  0  0  0  0  0  0  0  0  0  0
    0.0000    0.0000    0.0000 C   0  0  0  0  0  0  0  0  0  0  0  0
    0.0000    0.0000    0.0000 C   0  0  0  0  0  0  0  0  0  0  0  0
    0.0000    0.0000    0.0000 C   0  0  0  0  0  0  0  0  0  0  0  0
    0.0000    0.0000    0.0000 C   0  0  0  0  0  0  0  0  0  0  0  0
    0.0000    0.0000    0.0000 C   0  0  0  0  0  0  0  0  0  0  0  0
    0.0000    0.0000    0.0000 C   0  0  0  0  0  0  0  0  0  0  0  0
    0.0000    0.0000    0.0000 C   0  0  0  0  0  0  0  0  0  0  0  0
    0.0000    0.0000    0.0000 N   0  0  0  0  0  0  0  0  0  0  0  0
    0.0000    0.0000    0.0000 C   0  0  0  0  0  0  0  0  0  0  0  0
    0.0000    0.0000    0.0000 C   0  0  0  0  0  0  0  0  0  0  0  0
    0.0000    0.0000    0.0000 C   0  0  0  0  0  0  0  0  0  0  0  0
    0.0000    0.0000    0.0000 C   0  0  0  0  0  0  0  0  0  0  0  0
    0.0000    0.0000    0.0000 C   0  0  0  0  0  0  0  0  0  0  0  0
    0.0000    0.0000    0.0000 O   0  0  0  0  0  0  0  0  0  0  0  0
    0.0000    0.0000    0.0000 N   0  0  0  0  0  0  0  0  0  0  0  0
    0.0000    0.0000    0.0000 C   0  0  0  0  0  0  0  0  0  0  0  0
    0.0000    0.0000    0.0000 C   0  0  0  0  0  0  0  0  0  0  0  0
    0.0000    0.0000    0.0000 C   0  0  0  0  0  0  0  0  0  0  0  0
    0.0000    0.0000    0.0000 C   0  0  0  0  0  0  0  0  0  0  0  0
    0.0000    0.0000    0.0000 C   0  0  0  0  0  0  0  0  0  0  0  0
    0.0000    0.0000    0.0000 C   0  0  0  0  0  0  0  0  0  0  0  0
    0.0000    0.0000    0.0000 C   0  0  0  0  0  0  0  0  0  0  0  0
    0.0000    0.0000    0.0000 C   0  0  0  0  0  0  0  0  0  0  0  0
    0.0000    0.0000    0.0000 C   0  0  0  0  0  0  0  0  0  0  0  0
    0.0000    0.0000    0.0000 C   0  0  0  0  0  0  0  0  0  0  0  0
    0.0000    0.0000    0.0000 C   0  0  0  0  0  0  0  0  0  0  0  0
    0.0000    0.0000    0.0000 C   0  0  0  0  0  0  0  0  0  0  0  0
    0.0000    0.0000    0.0000 O   0  0  0  0  0  0  0  0  0  0  0  0
    0.0000    0.0000    0.0000 C   0  0  0  0  0  0  0  0  0  0  0  0
    0.0000    0.0000    0.0000 O   0  0  0  0  0  0  0  0  0  0  0  0
    0.0000    0.0000    0.0000 C   0  0  0  0  0  0  0  0  0  0  0  0
    0.0000    0.0000    0.0000 C   0  0  0  0  0  0  0  0  0  0  0  0
  1  2  1  0
  2  3  1  0
  3  4  1  0
  4  5  1  0
  5  6  2  0
  6  7  1  0
  7  8  2  0
  8  9  1  0
  9 10  2  0
 10 11  1  0
 11 12  1  0
 11 13  1  0
 13 14  1  0
 14 15  1  0
 15 16  1  0
 16 17  1  0
 17 18  1  0
 18 19  1  0
  8 20  1  0
 20 21  2  0
 20 22  1  0
 22 23  1  0
 23 24  1  0
 24 25  1  0
 25 26  2  0
 26 27  1  0
 27 28  2  0
 28 29  1  0
 29 30  2  0
 28 31  1  0
 31 32  2  0
 32 33  1  0
 33 34  2  0
 34 35  1  0
 35 36  1  0
 36 37  1  0
 37 38  1  0
 38 39  2  0
 11  2  1  0
 15  3  1  0
 10  5  1  0
 19 17  1  0
 30 25  1  0
 39 31  1  0
 38 34  1  0
M  END
>  <pIC50>  (771) 
7.96

>  <ChEMBL_ID>  (771) 
CHEMBL2208351

>  <document_journal>  (771) 
Bioorg. Med. Chem. Lett.

>  <bao_endpoint>  (771) 
BAO_0000190

>  <potential_duplicate>  (771) 
False

>  <uo_units>  (771) 
UO_0000065

>  <canonical_smiles>  (771) 
CC1C2Cc3ccc(cc3C1(C)CCN2CC4CC4)C(=O)NCCc5ccc(cc5)c6ccc7OCOc7c6

>  <parent_molecule_chembl_id>  (771) 
CHEMBL2208351

>  <assay_type>  (771) 
F

>  <src_id>  (771) 
1

>  <ligand_efficiency>  (771) 
None

>  <standard_flag>  (771) 
True

>  <molecule_chembl_id>  (771) 
CHEMBL2208351

>  <target_organism>  (771) 
Homo sapiens

>  <standard_units>  (771) 
nM

>  <record_id>  (771) 
1762300

>  <document_chembl_id>  (771) 
CHEMBL2203245

>  <bao_format>  (771) 
BAO_0000219

>  <data_validity_description>  (771) 
None

>  <activity_id>  (771) 
12203599

>  <standard_type>  (771) 
IC50

>  <target_chembl_id>  (771) 
CHEMBL233

>  <data_validity_comment>  (771) 
None

>  <published_value>  (771) 
11

>  <document_year>  (771) 
2012

>  <target_pref_name>  (771) 
Mu opioid receptor

>  <assay_chembl_id>  (771) 
CHEMBL2213834

>  <standard_relation>  (771) 
=

>  <assay_description>  (771) 
Antagonist activity at human mu opioid receptor expressed in CHO cells assessed as inhibition of DAMGO-induced [35S]GTPgammaS binding after 60 mins by scintillation counting

>  <published_relation>  (771) 
=

>  <standard_value>  (771) 
11

>  <qudt_units>  (771) 
http://www.openphacts.org/units/Nanomolar

>  <target_tax_id>  (771) 
9606

>  <bao_label>  (771) 
cell-based format

>  <published_units>  (771) 
nM

>  <pchembl_value>  (771) 
7.96

>  <published_type>  (771) 
IC50

>  <activity_comment>  (771) 
None

$$$$

     RDKit          

 40 45  0  0  0  0  0  0  0  0999 V2000
    0.0000    0.0000    0.0000 C   0  0  0  0  0  0  0  0  0  0  0  0
    0.0000    0.0000    0.0000 O   0  0  0  0  0  0  0  0  0  0  0  0
    0.0000    0.0000    0.0000 C   0  0  0  0  0  0  0  0  0  0  0  0
    0.0000    0.0000    0.0000 C   0  0  0  0  0  0  0  0  0  0  0  0
    0.0000    0.0000    0.0000 C   0  0  0  0  0  0  0  0  0  0  0  0
    0.0000    0.0000    0.0000 C   0  0  0  0  0  0  0  0  0  0  0  0
    0.0000    0.0000    0.0000 C   0  0  0  0  0  0  0  0  0  0  0  0
    0.0000    0.0000    0.0000 C   0  0  0  0  0  0  0  0  0  0  0  0
    0.0000    0.0000    0.0000 O   0  0  0  0  0  0  0  0  0  0  0  0
    0.0000    0.0000    0.0000 C   0  0  0  0  0  0  0  0  0  0  0  0
    0.0000    0.0000    0.0000 C   0  0  0  0  0  0  0  0  0  0  0  0
    0.0000    0.0000    0.0000 C   0  0  0  0  0  0  0  0  0  0  0  0
    0.0000    0.0000    0.0000 C   0  0  0  0  0  0  0  0  0  0  0  0
    0.0000    0.0000    0.0000 C   0  0  0  0  0  0  0  0  0  0  0  0
    0.0000    0.0000    0.0000 C   0  0  0  0  0  0  0  0  0  0  0  0
    0.0000    0.0000    0.0000 C   0  0  0  0  0  0  0  0  0  0  0  0
    0.0000    0.0000    0.0000 N   0  0  0  0  0  0  0  0  0  0  0  0
    0.0000    0.0000    0.0000 C   0  0  0  0  0  0  0  0  0  0  0  0
    0.0000    0.0000    0.0000 O   0  0  0  0  0  0  0  0  0  0  0  0
    0.0000    0.0000    0.0000 C   0  0  0  0  0  0  0  0  0  0  0  0
    0.0000    0.0000    0.0000 C   0  0  0  0  0  0  0  0  0  0  0  0
    0.0000    0.0000    0.0000 C   0  0  0  0  0  0  0  0  0  0  0  0
    0.0000    0.0000    0.0000 C   0  0  0  0  0  0  0  0  0  0  0  0
    0.0000    0.0000    0.0000 C   0  0  0  0  0  0  0  0  0  0  0  0
    0.0000    0.0000    0.0000 C   0  0  0  0  0  0  0  0  0  0  0  0
    0.0000    0.0000    0.0000 C   0  0  0  0  0  0  0  0  0  0  0  0
    0.0000    0.0000    0.0000 C   0  0  0  0  0  0  0  0  0  0  0  0
    0.0000    0.0000    0.0000 C   0  0  0  0  0  0  0  0  0  0  0  0
    0.0000    0.0000    0.0000 C   0  0  0  0  0  0  0  0  0  0  0  0
    0.0000    0.0000    0.0000 C   0  0  0  0  0  0  0  0  0  0  0  0
    0.0000    0.0000    0.0000 C   0  0  0  0  0  0  0  0  0  0  0  0
    0.0000    0.0000    0.0000 N   0  0  0  0  0  0  0  0  0  0  0  0
    0.0000    0.0000    0.0000 C   0  0  0  0  0  0  0  0  0  0  0  0
    0.0000    0.0000    0.0000 C   0  0  0  0  0  0  0  0  0  0  0  0
    0.0000    0.0000    0.0000 C   0  0  0  0  0  0  0  0  0  0  0  0
    0.0000    0.0000    0.0000 C   0  0  0  0  0  0  0  0  0  0  0  0
    0.0000    0.0000    0.0000 C   0  0  0  0  0  0  0  0  0  0  0  0
    0.0000    0.0000    0.0000 C   0  0  0  0  0  0  0  0  0  0  0  0
    0.0000    0.0000    0.0000 C   0  0  0  0  0  0  0  0  0  0  0  0
    0.0000    0.0000    0.0000 C   0  0  0  0  0  0  0  0  0  0  0  0
  1  2  1  0
  2  3  1  0
  3  4  2  0
  4  5  1  0
  5  6  2  0
  6  7  1  0
  7  8  2  0
  8  9  1  0
  9 10  1  0
  6 11  1  0
 11 12  2  0
 12 13  1  0
 13 14  2  0
 14 15  1  0
 15 16  1  0
 16 17  1  0
 17 18  1  0
 18 19  2  0
 18 20  1  0
 20 21  2  0
 21 22  1  0
 22 23  2  0
 23 24  1  0
 24 25  1  0
 25 26  1  0
 26 27  1  0
 26 28  1  0
 28 29  1  0
 28 30  1  0
 30 31  1  0
 31 32  1  0
 32 33  1  0
 33 34  1  0
 34 35  1  0
 35 36  1  0
 28 37  1  0
 37 38  2  0
 14 39  1  0
 39 40  2  0
  8  3  1  0
 40 11  1  0
 38 20  1  0
 37 23  1  0
 32 25  1  0
 36 34  1  0
M  END
>  <pIC50>  (772) 
7.54

>  <ChEMBL_ID>  (772) 
CHEMBL2208350

>  <document_journal>  (772) 
Bioorg. Med. Chem. Lett.

>  <bao_endpoint>  (772) 
BAO_0000190

>  <potential_duplicate>  (772) 
False

>  <uo_units>  (772) 
UO_0000065

>  <canonical_smiles>  (772) 
COc1ccc(cc1OC)c2ccc(CCNC(=O)c3ccc4CC5C(C)C(C)(CCN5CC6CC6)c4c3)cc2

>  <parent_molecule_chembl_id>  (772) 
CHEMBL2208350

>  <assay_type>  (772) 
F

>  <src_id>  (772) 
1

>  <ligand_efficiency>  (772) 
None

>  <standard_flag>  (772) 
True

>  <molecule_chembl_id>  (772) 
CHEMBL2208350

>  <target_organism>  (772) 
Homo sapiens

>  <standard_units>  (772) 
nM

>  <record_id>  (772) 
1762299

>  <document_chembl_id>  (772) 
CHEMBL2203245

>  <bao_format>  (772) 
BAO_0000219

>  <data_validity_description>  (772) 
None

>  <activity_id>  (772) 
12203600

>  <standard_type>  (772) 
IC50

>  <target_chembl_id>  (772) 
CHEMBL233

>  <data_validity_comment>  (772) 
None

>  <published_value>  (772) 
29

>  <document_year>  (772) 
2012

>  <target_pref_name>  (772) 
Mu opioid receptor

>  <assay_chembl_id>  (772) 
CHEMBL2213834

>  <standard_relation>  (772) 
=

>  <assay_description>  (772) 
Antagonist activity at human mu opioid receptor expressed in CHO cells assessed as inhibition of DAMGO-induced [35S]GTPgammaS binding after 60 mins by scintillation counting

>  <published_relation>  (772) 
=

>  <standard_value>  (772) 
29

>  <qudt_units>  (772) 
http://www.openphacts.org/units/Nanomolar

>  <target_tax_id>  (772) 
9606

>  <bao_label>  (772) 
cell-based format

>  <published_units>  (772) 
nM

>  <pchembl_value>  (772) 
7.54

>  <published_type>  (772) 
IC50

>  <activity_comment>  (772) 
None

$$$$

     RDKit          

 37 42  0  0  0  0  0  0  0  0999 V2000
    0.0000    0.0000    0.0000 C   0  0  0  0  0  0  0  0  0  0  0  0
    0.0000    0.0000    0.0000 C   0  0  0  0  0  0  0  0  0  0  0  0
    0.0000    0.0000    0.0000 C   0  0  0  0  0  0  0  0  0  0  0  0
    0.0000    0.0000    0.0000 C   0  0  0  0  0  0  0  0  0  0  0  0
    0.0000    0.0000    0.0000 C   0  0  0  0  0  0  0  0  0  0  0  0
    0.0000    0.0000    0.0000 C   0  0  0  0  0  0  0  0  0  0  0  0
    0.0000    0.0000    0.0000 C   0  0  0  0  0  0  0  0  0  0  0  0
    0.0000    0.0000    0.0000 C   0  0  0  0  0  0  0  0  0  0  0  0
    0.0000    0.0000    0.0000 C   0  0  0  0  0  0  0  0  0  0  0  0
    0.0000    0.0000    0.0000 C   0  0  0  0  0  0  0  0  0  0  0  0
    0.0000    0.0000    0.0000 C   0  0  0  0  0  0  0  0  0  0  0  0
    0.0000    0.0000    0.0000 C   0  0  0  0  0  0  0  0  0  0  0  0
    0.0000    0.0000    0.0000 C   0  0  0  0  0  0  0  0  0  0  0  0
    0.0000    0.0000    0.0000 C   0  0  0  0  0  0  0  0  0  0  0  0
    0.0000    0.0000    0.0000 N   0  0  0  0  0  0  0  0  0  0  0  0
    0.0000    0.0000    0.0000 C   0  0  0  0  0  0  0  0  0  0  0  0
    0.0000    0.0000    0.0000 C   0  0  0  0  0  0  0  0  0  0  0  0
    0.0000    0.0000    0.0000 C   0  0  0  0  0  0  0  0  0  0  0  0
    0.0000    0.0000    0.0000 C   0  0  0  0  0  0  0  0  0  0  0  0
    0.0000    0.0000    0.0000 C   0  0  0  0  0  0  0  0  0  0  0  0
    0.0000    0.0000    0.0000 O   0  0  0  0  0  0  0  0  0  0  0  0
    0.0000    0.0000    0.0000 N   0  0  0  0  0  0  0  0  0  0  0  0
    0.0000    0.0000    0.0000 C   0  0  0  0  0  0  0  0  0  0  0  0
    0.0000    0.0000    0.0000 C   0  0  0  0  0  0  0  0  0  0  0  0
    0.0000    0.0000    0.0000 C   0  0  0  0  0  0  0  0  0  0  0  0
    0.0000    0.0000    0.0000 C   0  0  0  0  0  0  0  0  0  0  0  0
    0.0000    0.0000    0.0000 C   0  0  0  0  0  0  0  0  0  0  0  0
    0.0000    0.0000    0.0000 C   0  0  0  0  0  0  0  0  0  0  0  0
    0.0000    0.0000    0.0000 C   0  0  0  0  0  0  0  0  0  0  0  0
    0.0000    0.0000    0.0000 C   0  0  0  0  0  0  0  0  0  0  0  0
    0.0000    0.0000    0.0000 C   0  0  0  0  0  0  0  0  0  0  0  0
    0.0000    0.0000    0.0000 C   0  0  0  0  0  0  0  0  0  0  0  0
    0.0000    0.0000    0.0000 C   0  0  0  0  0  0  0  0  0  0  0  0
    0.0000    0.0000    0.0000 C   0  0  0  0  0  0  0  0  0  0  0  0
    0.0000    0.0000    0.0000 C   0  0  0  0  0  0  0  0  0  0  0  0
    0.0000    0.0000    0.0000 C   0  0  0  0  0  0  0  0  0  0  0  0
    0.0000    0.0000    0.0000 O   0  0  0  0  0  0  0  0  0  0  0  0
  1  2  1  0
  2  3  1  0
  3  4  1  0
  4  5  1  0
  5  6  2  0
  6  7  1  0
  7  8  2  0
  8  9  1  0
  9 10  2  0
 10 11  1  0
 11 12  1  0
 11 13  1  0
 13 14  1  0
 14 15  1  0
 15 16  1  0
 16 17  1  0
 17 18  1  0
 18 19  1  0
  8 20  1  0
 20 21  2  0
 20 22  1  0
 22 23  1  0
 23 24  1  0
 24 25  1  0
 25 26  2  0
 26 27  1  0
 27 28  2  0
 28 29  1  0
 29 30  2  0
 28 31  1  0
 31 32  2  0
 32 33  1  0
 33 34  2  0
 34 35  1  0
 35 36  2  0
 36 37  1  0
 11  2  1  0
 15  3  1  0
 10  5  1  0
 19 17  1  0
 30 25  1  0
 36 31  1  0
M  END
>  <pIC50>  (773) 
7.19

>  <ChEMBL_ID>  (773) 
CHEMBL2208349

>  <document_journal>  (773) 
Bioorg. Med. Chem. Lett.

>  <bao_endpoint>  (773) 
BAO_0000190

>  <potential_duplicate>  (773) 
False

>  <uo_units>  (773) 
UO_0000065

>  <canonical_smiles>  (773) 
CC1C2Cc3ccc(cc3C1(C)CCN2CC4CC4)C(=O)NCCc5ccc(cc5)c6ccccc6O

>  <parent_molecule_chembl_id>  (773) 
CHEMBL2208349

>  <assay_type>  (773) 
F

>  <src_id>  (773) 
1

>  <ligand_efficiency>  (773) 
None

>  <standard_flag>  (773) 
True

>  <molecule_chembl_id>  (773) 
CHEMBL2208349

>  <target_organism>  (773) 
Homo sapiens

>  <standard_units>  (773) 
nM

>  <record_id>  (773) 
1762298

>  <document_chembl_id>  (773) 
CHEMBL2203245

>  <bao_format>  (773) 
BAO_0000219

>  <data_validity_description>  (773) 
None

>  <activity_id>  (773) 
12203601

>  <standard_type>  (773) 
IC50

>  <target_chembl_id>  (773) 
CHEMBL233

>  <data_validity_comment>  (773) 
None

>  <published_value>  (773) 
64

>  <document_year>  (773) 
2012

>  <target_pref_name>  (773) 
Mu opioid receptor

>  <assay_chembl_id>  (773) 
CHEMBL2213834

>  <standard_relation>  (773) 
=

>  <assay_description>  (773) 
Antagonist activity at human mu opioid receptor expressed in CHO cells assessed as inhibition of DAMGO-induced [35S]GTPgammaS binding after 60 mins by scintillation counting

>  <published_relation>  (773) 
=

>  <standard_value>  (773) 
64

>  <qudt_units>  (773) 
http://www.openphacts.org/units/Nanomolar

>  <target_tax_id>  (773) 
9606

>  <bao_label>  (773) 
cell-based format

>  <published_units>  (773) 
nM

>  <pchembl_value>  (773) 
7.19

>  <published_type>  (773) 
IC50

>  <activity_comment>  (773) 
None

$$$$

     RDKit          

 37 42  0  0  0  0  0  0  0  0999 V2000
    0.0000    0.0000    0.0000 C   0  0  0  0  0  0  0  0  0  0  0  0
    0.0000    0.0000    0.0000 C   0  0  0  0  0  0  0  0  0  0  0  0
    0.0000    0.0000    0.0000 C   0  0  0  0  0  0  0  0  0  0  0  0
    0.0000    0.0000    0.0000 C   0  0  0  0  0  0  0  0  0  0  0  0
    0.0000    0.0000    0.0000 C   0  0  0  0  0  0  0  0  0  0  0  0
    0.0000    0.0000    0.0000 C   0  0  0  0  0  0  0  0  0  0  0  0
    0.0000    0.0000    0.0000 C   0  0  0  0  0  0  0  0  0  0  0  0
    0.0000    0.0000    0.0000 C   0  0  0  0  0  0  0  0  0  0  0  0
    0.0000    0.0000    0.0000 C   0  0  0  0  0  0  0  0  0  0  0  0
    0.0000    0.0000    0.0000 C   0  0  0  0  0  0  0  0  0  0  0  0
    0.0000    0.0000    0.0000 C   0  0  0  0  0  0  0  0  0  0  0  0
    0.0000    0.0000    0.0000 C   0  0  0  0  0  0  0  0  0  0  0  0
    0.0000    0.0000    0.0000 C   0  0  0  0  0  0  0  0  0  0  0  0
    0.0000    0.0000    0.0000 C   0  0  0  0  0  0  0  0  0  0  0  0
    0.0000    0.0000    0.0000 N   0  0  0  0  0  0  0  0  0  0  0  0
    0.0000    0.0000    0.0000 C   0  0  0  0  0  0  0  0  0  0  0  0
    0.0000    0.0000    0.0000 C   0  0  0  0  0  0  0  0  0  0  0  0
    0.0000    0.0000    0.0000 C   0  0  0  0  0  0  0  0  0  0  0  0
    0.0000    0.0000    0.0000 C   0  0  0  0  0  0  0  0  0  0  0  0
    0.0000    0.0000    0.0000 C   0  0  0  0  0  0  0  0  0  0  0  0
    0.0000    0.0000    0.0000 O   0  0  0  0  0  0  0  0  0  0  0  0
    0.0000    0.0000    0.0000 N   0  0  0  0  0  0  0  0  0  0  0  0
    0.0000    0.0000    0.0000 C   0  0  0  0  0  0  0  0  0  0  0  0
    0.0000    0.0000    0.0000 C   0  0  0  0  0  0  0  0  0  0  0  0
    0.0000    0.0000    0.0000 C   0  0  0  0  0  0  0  0  0  0  0  0
    0.0000    0.0000    0.0000 C   0  0  0  0  0  0  0  0  0  0  0  0
    0.0000    0.0000    0.0000 C   0  0  0  0  0  0  0  0  0  0  0  0
    0.0000    0.0000    0.0000 C   0  0  0  0  0  0  0  0  0  0  0  0
    0.0000    0.0000    0.0000 C   0  0  0  0  0  0  0  0  0  0  0  0
    0.0000    0.0000    0.0000 C   0  0  0  0  0  0  0  0  0  0  0  0
    0.0000    0.0000    0.0000 C   0  0  0  0  0  0  0  0  0  0  0  0
    0.0000    0.0000    0.0000 C   0  0  0  0  0  0  0  0  0  0  0  0
    0.0000    0.0000    0.0000 C   0  0  0  0  0  0  0  0  0  0  0  0
    0.0000    0.0000    0.0000 C   0  0  0  0  0  0  0  0  0  0  0  0
    0.0000    0.0000    0.0000 O   0  0  0  0  0  0  0  0  0  0  0  0
    0.0000    0.0000    0.0000 C   0  0  0  0  0  0  0  0  0  0  0  0
    0.0000    0.0000    0.0000 C   0  0  0  0  0  0  0  0  0  0  0  0
  1  2  1  0
  2  3  1  0
  3  4  1  0
  4  5  1  0
  5  6  2  0
  6  7  1  0
  7  8  2  0
  8  9  1  0
  9 10  2  0
 10 11  1  0
 11 12  1  0
 11 13  1  0
 13 14  1  0
 14 15  1  0
 15 16  1  0
 16 17  1  0
 17 18  1  0
 18 19  1  0
  8 20  1  0
 20 21  2  0
 20 22  1  0
 22 23  1  0
 23 24  1  0
 24 25  1  0
 25 26  2  0
 26 27  1  0
 27 28  2  0
 28 29  1  0
 29 30  2  0
 28 31  1  0
 31 32  2  0
 32 33  1  0
 33 34  2  0
 34 35  1  0
 34 36  1  0
 36 37  2  0
 11  2  1  0
 15  3  1  0
 10  5  1  0
 19 17  1  0
 30 25  1  0
 37 31  1  0
M  END
>  <pIC50>  (774) 
8.35

>  <ChEMBL_ID>  (774) 
CHEMBL2208347

>  <document_journal>  (774) 
Bioorg. Med. Chem. Lett.

>  <bao_endpoint>  (774) 
BAO_0000190

>  <potential_duplicate>  (774) 
False

>  <uo_units>  (774) 
UO_0000065

>  <canonical_smiles>  (774) 
C[C@H]1[C@H]2Cc3ccc(cc3[C@]1(C)CCN2CC4CC4)C(=O)NCCc5ccc(cc5)c6ccc(O)cc6

>  <parent_molecule_chembl_id>  (774) 
CHEMBL2208347

>  <assay_type>  (774) 
F

>  <src_id>  (774) 
1

>  <ligand_efficiency>  (774) 
None

>  <standard_flag>  (774) 
True

>  <molecule_chembl_id>  (774) 
CHEMBL2208347

>  <target_organism>  (774) 
Homo sapiens

>  <standard_units>  (774) 
nM

>  <record_id>  (774) 
1762296

>  <document_chembl_id>  (774) 
CHEMBL2203245

>  <bao_format>  (774) 
BAO_0000219

>  <data_validity_description>  (774) 
None

>  <activity_id>  (774) 
12203602

>  <standard_type>  (774) 
IC50

>  <target_chembl_id>  (774) 
CHEMBL233

>  <data_validity_comment>  (774) 
None

>  <published_value>  (774) 
4.5

>  <document_year>  (774) 
2012

>  <target_pref_name>  (774) 
Mu opioid receptor

>  <assay_chembl_id>  (774) 
CHEMBL2213834

>  <standard_relation>  (774) 
=

>  <assay_description>  (774) 
Antagonist activity at human mu opioid receptor expressed in CHO cells assessed as inhibition of DAMGO-induced [35S]GTPgammaS binding after 60 mins by scintillation counting

>  <published_relation>  (774) 
=

>  <standard_value>  (774) 
4.5

>  <qudt_units>  (774) 
http://www.openphacts.org/units/Nanomolar

>  <target_tax_id>  (774) 
9606

>  <bao_label>  (774) 
cell-based format

>  <published_units>  (774) 
nM

>  <pchembl_value>  (774) 
8.35

>  <published_type>  (774) 
IC50

>  <activity_comment>  (774) 
None

$$$$

     RDKit          

 40 45  0  0  0  0  0  0  0  0999 V2000
    0.0000    0.0000    0.0000 C   0  0  0  0  0  0  0  0  0  0  0  0
    0.0000    0.0000    0.0000 C   0  0  0  0  0  0  0  0  0  0  0  0
    0.0000    0.0000    0.0000 C   0  0  0  0  0  0  0  0  0  0  0  0
    0.0000    0.0000    0.0000 O   0  0  0  0  0  0  0  0  0  0  0  0
    0.0000    0.0000    0.0000 C   0  0  0  0  0  0  0  0  0  0  0  0
    0.0000    0.0000    0.0000 C   0  0  0  0  0  0  0  0  0  0  0  0
    0.0000    0.0000    0.0000 C   0  0  0  0  0  0  0  0  0  0  0  0
    0.0000    0.0000    0.0000 C   0  0  0  0  0  0  0  0  0  0  0  0
    0.0000    0.0000    0.0000 C   0  0  0  0  0  0  0  0  0  0  0  0
    0.0000    0.0000    0.0000 C   0  0  0  0  0  0  0  0  0  0  0  0
    0.0000    0.0000    0.0000 C   0  0  0  0  0  0  0  0  0  0  0  0
    0.0000    0.0000    0.0000 C   0  0  0  0  0  0  0  0  0  0  0  0
    0.0000    0.0000    0.0000 C   0  0  0  0  0  0  0  0  0  0  0  0
    0.0000    0.0000    0.0000 C   0  0  0  0  0  0  0  0  0  0  0  0
    0.0000    0.0000    0.0000 C   0  0  0  0  0  0  0  0  0  0  0  0
    0.0000    0.0000    0.0000 C   0  0  0  0  0  0  0  0  0  0  0  0
    0.0000    0.0000    0.0000 N   0  0  0  0  0  0  0  0  0  0  0  0
    0.0000    0.0000    0.0000 C   0  0  0  0  0  0  0  0  0  0  0  0
    0.0000    0.0000    0.0000 O   0  0  0  0  0  0  0  0  0  0  0  0
    0.0000    0.0000    0.0000 C   0  0  0  0  0  0  0  0  0  0  0  0
    0.0000    0.0000    0.0000 C   0  0  0  0  0  0  0  0  0  0  0  0
    0.0000    0.0000    0.0000 C   0  0  0  0  0  0  0  0  0  0  0  0
    0.0000    0.0000    0.0000 C   0  0  0  0  0  0  0  0  0  0  0  0
    0.0000    0.0000    0.0000 C   0  0  0  0  0  0  0  0  0  0  0  0
    0.0000    0.0000    0.0000 C   0  0  0  0  0  0  0  0  0  0  0  0
    0.0000    0.0000    0.0000 C   0  0  0  0  0  0  0  0  0  0  0  0
    0.0000    0.0000    0.0000 C   0  0  0  0  0  0  0  0  0  0  0  0
    0.0000    0.0000    0.0000 C   0  0  0  0  0  0  0  0  0  0  0  0
    0.0000    0.0000    0.0000 C   0  0  0  0  0  0  0  0  0  0  0  0
    0.0000    0.0000    0.0000 C   0  0  0  0  0  0  0  0  0  0  0  0
    0.0000    0.0000    0.0000 C   0  0  0  0  0  0  0  0  0  0  0  0
    0.0000    0.0000    0.0000 N   0  0  0  0  0  0  0  0  0  0  0  0
    0.0000    0.0000    0.0000 C   0  0  0  0  0  0  0  0  0  0  0  0
    0.0000    0.0000    0.0000 C   0  0  0  0  0  0  0  0  0  0  0  0
    0.0000    0.0000    0.0000 C   0  0  0  0  0  0  0  0  0  0  0  0
    0.0000    0.0000    0.0000 C   0  0  0  0  0  0  0  0  0  0  0  0
    0.0000    0.0000    0.0000 C   0  0  0  0  0  0  0  0  0  0  0  0
    0.0000    0.0000    0.0000 C   0  0  0  0  0  0  0  0  0  0  0  0
    0.0000    0.0000    0.0000 C   0  0  0  0  0  0  0  0  0  0  0  0
    0.0000    0.0000    0.0000 C   0  0  0  0  0  0  0  0  0  0  0  0
  1  2  1  0
  2  3  1  0
  2  4  1  0
  4  5  1  0
  5  6  2  0
  6  7  1  0
  7  8  2  0
  8  9  1  0
  9 10  2  0
  8 11  1  0
 11 12  2  0
 12 13  1  0
 13 14  2  0
 14 15  1  0
 15 16  1  0
 16 17  1  0
 17 18  1  0
 18 19  2  0
 18 20  1  0
 20 21  2  0
 21 22  1  0
 22 23  2  0
 23 24  1  0
 24 25  1  0
 25 26  1  0
 26 27  1  0
 26 28  1  0
 28 29  1  0
 28 30  1  0
 30 31  1  0
 31 32  1  0
 32 33  1  0
 33 34  1  0
 34 35  1  0
 35 36  1  0
 28 37  1  0
 37 38  2  0
 14 39  1  0
 39 40  2  0
 10  5  1  0
 40 11  1  0
 38 20  1  0
 37 23  1  0
 32 25  1  0
 36 34  1  0
M  END
>  <pIC50>  (775) 
7.89

>  <ChEMBL_ID>  (775) 
CHEMBL2208361

>  <document_journal>  (775) 
Bioorg. Med. Chem. Lett.

>  <bao_endpoint>  (775) 
BAO_0000190

>  <potential_duplicate>  (775) 
False

>  <uo_units>  (775) 
UO_0000065

>  <canonical_smiles>  (775) 
CC(C)Oc1ccc(cc1)c2ccc(CCNC(=O)c3ccc4CC5C(C)C(C)(CCN5CC6CC6)c4c3)cc2

>  <parent_molecule_chembl_id>  (775) 
CHEMBL2208361

>  <assay_type>  (775) 
F

>  <src_id>  (775) 
1

>  <ligand_efficiency>  (775) 
None

>  <standard_flag>  (775) 
True

>  <molecule_chembl_id>  (775) 
CHEMBL2208361

>  <target_organism>  (775) 
Homo sapiens

>  <standard_units>  (775) 
nM

>  <record_id>  (775) 
1762312

>  <document_chembl_id>  (775) 
CHEMBL2203245

>  <bao_format>  (775) 
BAO_0000219

>  <data_validity_description>  (775) 
None

>  <activity_id>  (775) 
12203603

>  <standard_type>  (775) 
IC50

>  <target_chembl_id>  (775) 
CHEMBL233

>  <data_validity_comment>  (775) 
None

>  <published_value>  (775) 
13

>  <document_year>  (775) 
2012

>  <target_pref_name>  (775) 
Mu opioid receptor

>  <assay_chembl_id>  (775) 
CHEMBL2213834

>  <standard_relation>  (775) 
=

>  <assay_description>  (775) 
Antagonist activity at human mu opioid receptor expressed in CHO cells assessed as inhibition of DAMGO-induced [35S]GTPgammaS binding after 60 mins by scintillation counting

>  <published_relation>  (775) 
=

>  <standard_value>  (775) 
13

>  <qudt_units>  (775) 
http://www.openphacts.org/units/Nanomolar

>  <target_tax_id>  (775) 
9606

>  <bao_label>  (775) 
cell-based format

>  <published_units>  (775) 
nM

>  <pchembl_value>  (775) 
7.89

>  <published_type>  (775) 
IC50

>  <activity_comment>  (775) 
None

$$$$

     RDKit          

 38 43  0  0  0  0  0  0  0  0999 V2000
    0.0000    0.0000    0.0000 C   0  0  0  0  0  0  0  0  0  0  0  0
    0.0000    0.0000    0.0000 O   0  0  0  0  0  0  0  0  0  0  0  0
    0.0000    0.0000    0.0000 C   0  0  0  0  0  0  0  0  0  0  0  0
    0.0000    0.0000    0.0000 C   0  0  0  0  0  0  0  0  0  0  0  0
    0.0000    0.0000    0.0000 C   0  0  0  0  0  0  0  0  0  0  0  0
    0.0000    0.0000    0.0000 C   0  0  0  0  0  0  0  0  0  0  0  0
    0.0000    0.0000    0.0000 C   0  0  0  0  0  0  0  0  0  0  0  0
    0.0000    0.0000    0.0000 C   0  0  0  0  0  0  0  0  0  0  0  0
    0.0000    0.0000    0.0000 C   0  0  0  0  0  0  0  0  0  0  0  0
    0.0000    0.0000    0.0000 C   0  0  0  0  0  0  0  0  0  0  0  0
    0.0000    0.0000    0.0000 C   0  0  0  0  0  0  0  0  0  0  0  0
    0.0000    0.0000    0.0000 C   0  0  0  0  0  0  0  0  0  0  0  0
    0.0000    0.0000    0.0000 C   0  0  0  0  0  0  0  0  0  0  0  0
    0.0000    0.0000    0.0000 C   0  0  0  0  0  0  0  0  0  0  0  0
    0.0000    0.0000    0.0000 N   0  0  0  0  0  0  0  0  0  0  0  0
    0.0000    0.0000    0.0000 C   0  0  0  0  0  0  0  0  0  0  0  0
    0.0000    0.0000    0.0000 O   0  0  0  0  0  0  0  0  0  0  0  0
    0.0000    0.0000    0.0000 C   0  0  0  0  0  0  0  0  0  0  0  0
    0.0000    0.0000    0.0000 C   0  0  0  0  0  0  0  0  0  0  0  0
    0.0000    0.0000    0.0000 C   0  0  0  0  0  0  0  0  0  0  0  0
    0.0000    0.0000    0.0000 C   0  0  0  0  0  0  0  0  0  0  0  0
    0.0000    0.0000    0.0000 C   0  0  0  0  0  0  0  0  0  0  0  0
    0.0000    0.0000    0.0000 C   0  0  0  0  0  0  0  0  0  0  0  0
    0.0000    0.0000    0.0000 C   0  0  0  0  0  0  0  0  0  0  0  0
    0.0000    0.0000    0.0000 C   0  0  0  0  0  0  0  0  0  0  0  0
    0.0000    0.0000    0.0000 C   0  0  0  0  0  0  0  0  0  0  0  0
    0.0000    0.0000    0.0000 C   0  0  0  0  0  0  0  0  0  0  0  0
    0.0000    0.0000    0.0000 C   0  0  0  0  0  0  0  0  0  0  0  0
    0.0000    0.0000    0.0000 C   0  0  0  0  0  0  0  0  0  0  0  0
    0.0000    0.0000    0.0000 N   0  0  0  0  0  0  0  0  0  0  0  0
    0.0000    0.0000    0.0000 C   0  0  0  0  0  0  0  0  0  0  0  0
    0.0000    0.0000    0.0000 C   0  0  0  0  0  0  0  0  0  0  0  0
    0.0000    0.0000    0.0000 C   0  0  0  0  0  0  0  0  0  0  0  0
    0.0000    0.0000    0.0000 C   0  0  0  0  0  0  0  0  0  0  0  0
    0.0000    0.0000    0.0000 C   0  0  0  0  0  0  0  0  0  0  0  0
    0.0000    0.0000    0.0000 C   0  0  0  0  0  0  0  0  0  0  0  0
    0.0000    0.0000    0.0000 C   0  0  0  0  0  0  0  0  0  0  0  0
    0.0000    0.0000    0.0000 C   0  0  0  0  0  0  0  0  0  0  0  0
  1  2  1  0
  2  3  1  0
  3  4  2  0
  4  5  1  0
  5  6  2  0
  6  7  1  0
  7  8  2  0
  7  9  1  0
  9 10  2  0
 10 11  1  0
 11 12  2  0
 12 13  1  0
 13 14  1  0
 14 15  1  0
 15 16  1  0
 16 17  2  0
 16 18  1  0
 18 19  2  0
 19 20  1  0
 20 21  2  0
 21 22  1  0
 22 23  1  0
 23 24  1  0
 24 25  1  0
 24 26  1  0
 26 27  1  0
 26 28  1  0
 28 29  1  0
 29 30  1  0
 30 31  1  0
 31 32  1  0
 32 33  1  0
 33 34  1  0
 26 35  1  0
 35 36  2  0
 12 37  1  0
 37 38  2  0
  8  3  1  0
 38  9  1  0
 36 18  1  0
 35 21  1  0
 30 23  1  0
 34 32  1  0
M  END
>  <pIC50>  (776) 
7.57

>  <ChEMBL_ID>  (776) 
CHEMBL2208358

>  <document_journal>  (776) 
Bioorg. Med. Chem. Lett.

>  <bao_endpoint>  (776) 
BAO_0000190

>  <potential_duplicate>  (776) 
False

>  <uo_units>  (776) 
UO_0000065

>  <canonical_smiles>  (776) 
COc1cccc(c1)c2ccc(CCNC(=O)c3ccc4CC5C(C)C(C)(CCN5CC6CC6)c4c3)cc2

>  <parent_molecule_chembl_id>  (776) 
CHEMBL2208358

>  <assay_type>  (776) 
F

>  <src_id>  (776) 
1

>  <ligand_efficiency>  (776) 
None

>  <standard_flag>  (776) 
True

>  <molecule_chembl_id>  (776) 
CHEMBL2208358

>  <target_organism>  (776) 
Homo sapiens

>  <standard_units>  (776) 
nM

>  <record_id>  (776) 
1762309

>  <document_chembl_id>  (776) 
CHEMBL2203245

>  <bao_format>  (776) 
BAO_0000219

>  <data_validity_description>  (776) 
None

>  <activity_id>  (776) 
12203604

>  <standard_type>  (776) 
IC50

>  <target_chembl_id>  (776) 
CHEMBL233

>  <data_validity_comment>  (776) 
None

>  <published_value>  (776) 
27

>  <document_year>  (776) 
2012

>  <target_pref_name>  (776) 
Mu opioid receptor

>  <assay_chembl_id>  (776) 
CHEMBL2213834

>  <standard_relation>  (776) 
=

>  <assay_description>  (776) 
Antagonist activity at human mu opioid receptor expressed in CHO cells assessed as inhibition of DAMGO-induced [35S]GTPgammaS binding after 60 mins by scintillation counting

>  <published_relation>  (776) 
=

>  <standard_value>  (776) 
27

>  <qudt_units>  (776) 
http://www.openphacts.org/units/Nanomolar

>  <target_tax_id>  (776) 
9606

>  <bao_label>  (776) 
cell-based format

>  <published_units>  (776) 
nM

>  <pchembl_value>  (776) 
7.57

>  <published_type>  (776) 
IC50

>  <activity_comment>  (776) 
None

$$$$

     RDKit          

 36 41  0  0  0  0  0  0  0  0999 V2000
    0.0000    0.0000    0.0000 C   0  0  0  0  0  0  0  0  0  0  0  0
    0.0000    0.0000    0.0000 C   0  0  0  0  0  0  0  0  0  0  0  0
    0.0000    0.0000    0.0000 C   0  0  0  0  0  0  0  0  0  0  0  0
    0.0000    0.0000    0.0000 C   0  0  0  0  0  0  0  0  0  0  0  0
    0.0000    0.0000    0.0000 C   0  0  0  0  0  0  0  0  0  0  0  0
    0.0000    0.0000    0.0000 C   0  0  0  0  0  0  0  0  0  0  0  0
    0.0000    0.0000    0.0000 C   0  0  0  0  0  0  0  0  0  0  0  0
    0.0000    0.0000    0.0000 C   0  0  0  0  0  0  0  0  0  0  0  0
    0.0000    0.0000    0.0000 C   0  0  0  0  0  0  0  0  0  0  0  0
    0.0000    0.0000    0.0000 C   0  0  0  0  0  0  0  0  0  0  0  0
    0.0000    0.0000    0.0000 C   0  0  0  0  0  0  0  0  0  0  0  0
    0.0000    0.0000    0.0000 C   0  0  0  0  0  0  0  0  0  0  0  0
    0.0000    0.0000    0.0000 C   0  0  0  0  0  0  0  0  0  0  0  0
    0.0000    0.0000    0.0000 C   0  0  0  0  0  0  0  0  0  0  0  0
    0.0000    0.0000    0.0000 N   0  0  0  0  0  0  0  0  0  0  0  0
    0.0000    0.0000    0.0000 C   0  0  0  0  0  0  0  0  0  0  0  0
    0.0000    0.0000    0.0000 C   0  0  0  0  0  0  0  0  0  0  0  0
    0.0000    0.0000    0.0000 C   0  0  0  0  0  0  0  0  0  0  0  0
    0.0000    0.0000    0.0000 C   0  0  0  0  0  0  0  0  0  0  0  0
    0.0000    0.0000    0.0000 C   0  0  0  0  0  0  0  0  0  0  0  0
    0.0000    0.0000    0.0000 O   0  0  0  0  0  0  0  0  0  0  0  0
    0.0000    0.0000    0.0000 N   0  0  0  0  0  0  0  0  0  0  0  0
    0.0000    0.0000    0.0000 C   0  0  0  0  0  0  0  0  0  0  0  0
    0.0000    0.0000    0.0000 C   0  0  0  0  0  0  0  0  0  0  0  0
    0.0000    0.0000    0.0000 C   0  0  0  0  0  0  0  0  0  0  0  0
    0.0000    0.0000    0.0000 C   0  0  0  0  0  0  0  0  0  0  0  0
    0.0000    0.0000    0.0000 C   0  0  0  0  0  0  0  0  0  0  0  0
    0.0000    0.0000    0.0000 C   0  0  0  0  0  0  0  0  0  0  0  0
    0.0000    0.0000    0.0000 C   0  0  0  0  0  0  0  0  0  0  0  0
    0.0000    0.0000    0.0000 N   0  0  0  0  0  0  0  0  0  0  0  0
    0.0000    0.0000    0.0000 C   0  0  0  0  0  0  0  0  0  0  0  0
    0.0000    0.0000    0.0000 C   0  0  0  0  0  0  0  0  0  0  0  0
    0.0000    0.0000    0.0000 C   0  0  0  0  0  0  0  0  0  0  0  0
    0.0000    0.0000    0.0000 C   0  0  0  0  0  0  0  0  0  0  0  0
    0.0000    0.0000    0.0000 C   0  0  0  0  0  0  0  0  0  0  0  0
    0.0000    0.0000    0.0000 C   0  0  0  0  0  0  0  0  0  0  0  0
  1  2  1  0
  2  3  1  0
  3  4  1  0
  4  5  1  0
  5  6  2  0
  6  7  1  0
  7  8  2  0
  8  9  1  0
  9 10  2  0
 10 11  1  0
 11 12  1  0
 11 13  1  0
 13 14  1  0
 14 15  1  0
 15 16  1  0
 16 17  1  0
 17 18  1  0
 18 19  1  0
  8 20  1  0
 20 21  2  0
 20 22  1  0
 22 23  1  0
 23 24  1  0
 24 25  1  0
 25 26  2  0
 26 27  1  0
 27 28  2  0
 28 29  1  0
 29 30  2  0
 28 31  1  0
 31 32  2  0
 32 33  1  0
 33 34  2  0
 34 35  1  0
 35 36  2  0
 11  2  1  0
 15  3  1  0
 10  5  1  0
 19 17  1  0
 30 25  1  0
 36 31  1  0
M  END
>  <pIC50>  (777) 
7.13

>  <ChEMBL_ID>  (777) 
CHEMBL2347239

>  <document_journal>  (777) 
Bioorg. Med. Chem. Lett.

>  <bao_endpoint>  (777) 
BAO_0000190

>  <potential_duplicate>  (777) 
False

>  <uo_units>  (777) 
UO_0000065

>  <canonical_smiles>  (777) 
C[C@H]1C2Cc3ccc(cc3[C@@]1(C)CCN2CC4CC4)C(=O)NCCc5ccc(cn5)c6ccccc6

>  <parent_molecule_chembl_id>  (777) 
CHEMBL2347239

>  <assay_type>  (777) 
F

>  <src_id>  (777) 
1

>  <ligand_efficiency>  (777) 
None

>  <standard_flag>  (777) 
True

>  <molecule_chembl_id>  (777) 
CHEMBL2347239

>  <target_organism>  (777) 
Homo sapiens

>  <standard_units>  (777) 
nM

>  <record_id>  (777) 
1875013

>  <document_chembl_id>  (777) 
CHEMBL2346652

>  <bao_format>  (777) 
BAO_0000219

>  <data_validity_description>  (777) 
None

>  <activity_id>  (777) 
12719896

>  <standard_type>  (777) 
IC50

>  <target_chembl_id>  (777) 
CHEMBL233

>  <data_validity_comment>  (777) 
None

>  <published_value>  (777) 
75

>  <document_year>  (777) 
2013

>  <target_pref_name>  (777) 
Mu opioid receptor

>  <assay_chembl_id>  (777) 
CHEMBL2353037

>  <standard_relation>  (777) 
=

>  <assay_description>  (777) 
Partial agonist activity at human mu opioid receptor expressed in CHO cell membrane assessed as inhibition of DAMGO-induced [35S]GTPgammaS binding after 60 mins by liquid scintillation counting

>  <published_relation>  (777) 
=

>  <standard_value>  (777) 
75

>  <qudt_units>  (777) 
http://www.openphacts.org/units/Nanomolar

>  <target_tax_id>  (777) 
9606

>  <bao_label>  (777) 
cell-based format

>  <published_units>  (777) 
nM

>  <pchembl_value>  (777) 
7.13

>  <published_type>  (777) 
IC50

>  <activity_comment>  (777) 
None

$$$$

     RDKit          

 36 41  0  0  0  0  0  0  0  0999 V2000
    0.0000    0.0000    0.0000 C   0  0  0  0  0  0  0  0  0  0  0  0
    0.0000    0.0000    0.0000 C   0  0  0  0  0  0  0  0  0  0  0  0
    0.0000    0.0000    0.0000 C   0  0  0  0  0  0  0  0  0  0  0  0
    0.0000    0.0000    0.0000 C   0  0  0  0  0  0  0  0  0  0  0  0
    0.0000    0.0000    0.0000 C   0  0  0  0  0  0  0  0  0  0  0  0
    0.0000    0.0000    0.0000 C   0  0  0  0  0  0  0  0  0  0  0  0
    0.0000    0.0000    0.0000 C   0  0  0  0  0  0  0  0  0  0  0  0
    0.0000    0.0000    0.0000 C   0  0  0  0  0  0  0  0  0  0  0  0
    0.0000    0.0000    0.0000 C   0  0  0  0  0  0  0  0  0  0  0  0
    0.0000    0.0000    0.0000 C   0  0  0  0  0  0  0  0  0  0  0  0
    0.0000    0.0000    0.0000 C   0  0  0  0  0  0  0  0  0  0  0  0
    0.0000    0.0000    0.0000 C   0  0  0  0  0  0  0  0  0  0  0  0
    0.0000    0.0000    0.0000 C   0  0  0  0  0  0  0  0  0  0  0  0
    0.0000    0.0000    0.0000 C   0  0  0  0  0  0  0  0  0  0  0  0
    0.0000    0.0000    0.0000 N   0  0  0  0  0  0  0  0  0  0  0  0
    0.0000    0.0000    0.0000 C   0  0  0  0  0  0  0  0  0  0  0  0
    0.0000    0.0000    0.0000 C   0  0  0  0  0  0  0  0  0  0  0  0
    0.0000    0.0000    0.0000 C   0  0  0  0  0  0  0  0  0  0  0  0
    0.0000    0.0000    0.0000 C   0  0  0  0  0  0  0  0  0  0  0  0
    0.0000    0.0000    0.0000 C   0  0  0  0  0  0  0  0  0  0  0  0
    0.0000    0.0000    0.0000 O   0  0  0  0  0  0  0  0  0  0  0  0
    0.0000    0.0000    0.0000 N   0  0  0  0  0  0  0  0  0  0  0  0
    0.0000    0.0000    0.0000 C   0  0  0  0  0  0  0  0  0  0  0  0
    0.0000    0.0000    0.0000 C   0  0  0  0  0  0  0  0  0  0  0  0
    0.0000    0.0000    0.0000 C   0  0  0  0  0  0  0  0  0  0  0  0
    0.0000    0.0000    0.0000 C   0  0  0  0  0  0  0  0  0  0  0  0
    0.0000    0.0000    0.0000 C   0  0  0  0  0  0  0  0  0  0  0  0
    0.0000    0.0000    0.0000 C   0  0  0  0  0  0  0  0  0  0  0  0
    0.0000    0.0000    0.0000 N   0  0  0  0  0  0  0  0  0  0  0  0
    0.0000    0.0000    0.0000 C   0  0  0  0  0  0  0  0  0  0  0  0
    0.0000    0.0000    0.0000 C   0  0  0  0  0  0  0  0  0  0  0  0
    0.0000    0.0000    0.0000 C   0  0  0  0  0  0  0  0  0  0  0  0
    0.0000    0.0000    0.0000 C   0  0  0  0  0  0  0  0  0  0  0  0
    0.0000    0.0000    0.0000 C   0  0  0  0  0  0  0  0  0  0  0  0
    0.0000    0.0000    0.0000 C   0  0  0  0  0  0  0  0  0  0  0  0
    0.0000    0.0000    0.0000 C   0  0  0  0  0  0  0  0  0  0  0  0
  1  2  1  0
  2  3  1  0
  3  4  1  0
  4  5  1  0
  5  6  2  0
  6  7  1  0
  7  8  2  0
  8  9  1  0
  9 10  2  0
 10 11  1  0
 11 12  1  0
 11 13  1  0
 13 14  1  0
 14 15  1  0
 15 16  1  0
 16 17  1  0
 17 18  1  0
 18 19  1  0
  8 20  1  0
 20 21  2  0
 20 22  1  0
 22 23  1  0
 23 24  1  0
 24 25  1  0
 25 26  2  0
 26 27  1  0
 27 28  2  0
 28 29  1  0
 29 30  2  0
 28 31  1  0
 31 32  2  0
 32 33  1  0
 33 34  2  0
 34 35  1  0
 35 36  2  0
 11  2  1  0
 15  3  1  0
 10  5  1  0
 19 17  1  0
 30 25  1  0
 36 31  1  0
M  END
>  <pIC50>  (778) 
6.6

>  <ChEMBL_ID>  (778) 
CHEMBL2347238

>  <document_journal>  (778) 
Bioorg. Med. Chem. Lett.

>  <bao_endpoint>  (778) 
BAO_0000190

>  <potential_duplicate>  (778) 
False

>  <uo_units>  (778) 
UO_0000065

>  <canonical_smiles>  (778) 
C[C@H]1C2Cc3ccc(cc3[C@@]1(C)CCN2CC4CC4)C(=O)NCCc5ccc(nc5)c6ccccc6

>  <parent_molecule_chembl_id>  (778) 
CHEMBL2347238

>  <assay_type>  (778) 
F

>  <src_id>  (778) 
1

>  <ligand_efficiency>  (778) 
None

>  <standard_flag>  (778) 
True

>  <molecule_chembl_id>  (778) 
CHEMBL2347238

>  <target_organism>  (778) 
Homo sapiens

>  <standard_units>  (778) 
nM

>  <record_id>  (778) 
1875012

>  <document_chembl_id>  (778) 
CHEMBL2346652

>  <bao_format>  (778) 
BAO_0000219

>  <data_validity_description>  (778) 
None

>  <activity_id>  (778) 
12719897

>  <standard_type>  (778) 
IC50

>  <target_chembl_id>  (778) 
CHEMBL233

>  <data_validity_comment>  (778) 
None

>  <published_value>  (778) 
250

>  <document_year>  (778) 
2013

>  <target_pref_name>  (778) 
Mu opioid receptor

>  <assay_chembl_id>  (778) 
CHEMBL2353037

>  <standard_relation>  (778) 
=

>  <assay_description>  (778) 
Partial agonist activity at human mu opioid receptor expressed in CHO cell membrane assessed as inhibition of DAMGO-induced [35S]GTPgammaS binding after 60 mins by liquid scintillation counting

>  <published_relation>  (778) 
=

>  <standard_value>  (778) 
250

>  <qudt_units>  (778) 
http://www.openphacts.org/units/Nanomolar

>  <target_tax_id>  (778) 
9606

>  <bao_label>  (778) 
cell-based format

>  <published_units>  (778) 
nM

>  <pchembl_value>  (778) 
6.6

>  <published_type>  (778) 
IC50

>  <activity_comment>  (778) 
None

$$$$

     RDKit          

 36 41  0  0  0  0  0  0  0  0999 V2000
    0.0000    0.0000    0.0000 C   0  0  0  0  0  0  0  0  0  0  0  0
    0.0000    0.0000    0.0000 C   0  0  0  0  0  0  0  0  0  0  0  0
    0.0000    0.0000    0.0000 C   0  0  0  0  0  0  0  0  0  0  0  0
    0.0000    0.0000    0.0000 C   0  0  0  0  0  0  0  0  0  0  0  0
    0.0000    0.0000    0.0000 C   0  0  0  0  0  0  0  0  0  0  0  0
    0.0000    0.0000    0.0000 C   0  0  0  0  0  0  0  0  0  0  0  0
    0.0000    0.0000    0.0000 C   0  0  0  0  0  0  0  0  0  0  0  0
    0.0000    0.0000    0.0000 C   0  0  0  0  0  0  0  0  0  0  0  0
    0.0000    0.0000    0.0000 C   0  0  0  0  0  0  0  0  0  0  0  0
    0.0000    0.0000    0.0000 C   0  0  0  0  0  0  0  0  0  0  0  0
    0.0000    0.0000    0.0000 C   0  0  0  0  0  0  0  0  0  0  0  0
    0.0000    0.0000    0.0000 C   0  0  0  0  0  0  0  0  0  0  0  0
    0.0000    0.0000    0.0000 C   0  0  0  0  0  0  0  0  0  0  0  0
    0.0000    0.0000    0.0000 C   0  0  0  0  0  0  0  0  0  0  0  0
    0.0000    0.0000    0.0000 N   0  0  0  0  0  0  0  0  0  0  0  0
    0.0000    0.0000    0.0000 C   0  0  0  0  0  0  0  0  0  0  0  0
    0.0000    0.0000    0.0000 C   0  0  0  0  0  0  0  0  0  0  0  0
    0.0000    0.0000    0.0000 C   0  0  0  0  0  0  0  0  0  0  0  0
    0.0000    0.0000    0.0000 C   0  0  0  0  0  0  0  0  0  0  0  0
    0.0000    0.0000    0.0000 C   0  0  0  0  0  0  0  0  0  0  0  0
    0.0000    0.0000    0.0000 O   0  0  0  0  0  0  0  0  0  0  0  0
    0.0000    0.0000    0.0000 N   0  0  0  0  0  0  0  0  0  0  0  0
    0.0000    0.0000    0.0000 C   0  0  0  0  0  0  0  0  0  0  0  0
    0.0000    0.0000    0.0000 C   0  0  0  0  0  0  0  0  0  0  0  0
    0.0000    0.0000    0.0000 C   0  0  0  0  0  0  0  0  0  0  0  0
    0.0000    0.0000    0.0000 C   0  0  0  0  0  0  0  0  0  0  0  0
    0.0000    0.0000    0.0000 C   0  0  0  0  0  0  0  0  0  0  0  0
    0.0000    0.0000    0.0000 C   0  0  0  0  0  0  0  0  0  0  0  0
    0.0000    0.0000    0.0000 C   0  0  0  0  0  0  0  0  0  0  0  0
    0.0000    0.0000    0.0000 C   0  0  0  0  0  0  0  0  0  0  0  0
    0.0000    0.0000    0.0000 C   0  0  0  0  0  0  0  0  0  0  0  0
    0.0000    0.0000    0.0000 C   0  0  0  0  0  0  0  0  0  0  0  0
    0.0000    0.0000    0.0000 C   0  0  0  0  0  0  0  0  0  0  0  0
    0.0000    0.0000    0.0000 C   0  0  0  0  0  0  0  0  0  0  0  0
    0.0000    0.0000    0.0000 C   0  0  0  0  0  0  0  0  0  0  0  0
    0.0000    0.0000    0.0000 N   0  0  0  0  0  0  0  0  0  0  0  0
  1  2  1  0
  2  3  1  0
  3  4  1  0
  4  5  1  0
  5  6  2  0
  6  7  1  0
  7  8  2  0
  8  9  1  0
  9 10  2  0
 10 11  1  0
 11 12  1  0
 11 13  1  0
 13 14  1  0
 14 15  1  0
 15 16  1  0
 16 17  1  0
 17 18  1  0
 18 19  1  0
  8 20  1  0
 20 21  2  0
 20 22  1  0
 22 23  1  0
 23 24  1  0
 24 25  1  0
 25 26  2  0
 26 27  1  0
 27 28  2  0
 28 29  1  0
 29 30  2  0
 28 31  1  0
 31 32  2  0
 32 33  1  0
 33 34  2  0
 34 35  1  0
 35 36  2  0
 11  2  1  0
 15  3  1  0
 10  5  1  0
 19 17  1  0
 30 25  1  0
 36 31  1  0
M  END
>  <pIC50>  (779) 
6.82

>  <ChEMBL_ID>  (779) 
CHEMBL2347237

>  <document_journal>  (779) 
Bioorg. Med. Chem. Lett.

>  <bao_endpoint>  (779) 
BAO_0000190

>  <potential_duplicate>  (779) 
False

>  <uo_units>  (779) 
UO_0000065

>  <canonical_smiles>  (779) 
C[C@H]1C2Cc3ccc(cc3[C@@]1(C)CCN2CC4CC4)C(=O)NCCc5ccc(cc5)c6ccccn6

>  <parent_molecule_chembl_id>  (779) 
CHEMBL2347237

>  <assay_type>  (779) 
F

>  <src_id>  (779) 
1

>  <ligand_efficiency>  (779) 
None

>  <standard_flag>  (779) 
True

>  <molecule_chembl_id>  (779) 
CHEMBL2347237

>  <target_organism>  (779) 
Homo sapiens

>  <standard_units>  (779) 
nM

>  <record_id>  (779) 
1875011

>  <document_chembl_id>  (779) 
CHEMBL2346652

>  <bao_format>  (779) 
BAO_0000219

>  <data_validity_description>  (779) 
None

>  <activity_id>  (779) 
12719898

>  <standard_type>  (779) 
IC50

>  <target_chembl_id>  (779) 
CHEMBL233

>  <data_validity_comment>  (779) 
None

>  <published_value>  (779) 
150

>  <document_year>  (779) 
2013

>  <target_pref_name>  (779) 
Mu opioid receptor

>  <assay_chembl_id>  (779) 
CHEMBL2353037

>  <standard_relation>  (779) 
=

>  <assay_description>  (779) 
Partial agonist activity at human mu opioid receptor expressed in CHO cell membrane assessed as inhibition of DAMGO-induced [35S]GTPgammaS binding after 60 mins by liquid scintillation counting

>  <published_relation>  (779) 
=

>  <standard_value>  (779) 
150

>  <qudt_units>  (779) 
http://www.openphacts.org/units/Nanomolar

>  <target_tax_id>  (779) 
9606

>  <bao_label>  (779) 
cell-based format

>  <published_units>  (779) 
nM

>  <pchembl_value>  (779) 
6.82

>  <published_type>  (779) 
IC50

>  <activity_comment>  (779) 
None

$$$$

     RDKit          

 36 41  0  0  0  0  0  0  0  0999 V2000
    0.0000    0.0000    0.0000 C   0  0  0  0  0  0  0  0  0  0  0  0
    0.0000    0.0000    0.0000 C   0  0  0  0  0  0  0  0  0  0  0  0
    0.0000    0.0000    0.0000 C   0  0  0  0  0  0  0  0  0  0  0  0
    0.0000    0.0000    0.0000 C   0  0  0  0  0  0  0  0  0  0  0  0
    0.0000    0.0000    0.0000 C   0  0  0  0  0  0  0  0  0  0  0  0
    0.0000    0.0000    0.0000 C   0  0  0  0  0  0  0  0  0  0  0  0
    0.0000    0.0000    0.0000 C   0  0  0  0  0  0  0  0  0  0  0  0
    0.0000    0.0000    0.0000 C   0  0  0  0  0  0  0  0  0  0  0  0
    0.0000    0.0000    0.0000 C   0  0  0  0  0  0  0  0  0  0  0  0
    0.0000    0.0000    0.0000 C   0  0  0  0  0  0  0  0  0  0  0  0
    0.0000    0.0000    0.0000 C   0  0  0  0  0  0  0  0  0  0  0  0
    0.0000    0.0000    0.0000 C   0  0  0  0  0  0  0  0  0  0  0  0
    0.0000    0.0000    0.0000 C   0  0  0  0  0  0  0  0  0  0  0  0
    0.0000    0.0000    0.0000 C   0  0  0  0  0  0  0  0  0  0  0  0
    0.0000    0.0000    0.0000 N   0  0  0  0  0  0  0  0  0  0  0  0
    0.0000    0.0000    0.0000 C   0  0  0  0  0  0  0  0  0  0  0  0
    0.0000    0.0000    0.0000 C   0  0  0  0  0  0  0  0  0  0  0  0
    0.0000    0.0000    0.0000 C   0  0  0  0  0  0  0  0  0  0  0  0
    0.0000    0.0000    0.0000 C   0  0  0  0  0  0  0  0  0  0  0  0
    0.0000    0.0000    0.0000 C   0  0  0  0  0  0  0  0  0  0  0  0
    0.0000    0.0000    0.0000 O   0  0  0  0  0  0  0  0  0  0  0  0
    0.0000    0.0000    0.0000 N   0  0  0  0  0  0  0  0  0  0  0  0
    0.0000    0.0000    0.0000 C   0  0  0  0  0  0  0  0  0  0  0  0
    0.0000    0.0000    0.0000 C   0  0  0  0  0  0  0  0  0  0  0  0
    0.0000    0.0000    0.0000 C   0  0  0  0  0  0  0  0  0  0  0  0
    0.0000    0.0000    0.0000 C   0  0  0  0  0  0  0  0  0  0  0  0
    0.0000    0.0000    0.0000 C   0  0  0  0  0  0  0  0  0  0  0  0
    0.0000    0.0000    0.0000 C   0  0  0  0  0  0  0  0  0  0  0  0
    0.0000    0.0000    0.0000 C   0  0  0  0  0  0  0  0  0  0  0  0
    0.0000    0.0000    0.0000 C   0  0  0  0  0  0  0  0  0  0  0  0
    0.0000    0.0000    0.0000 C   0  0  0  0  0  0  0  0  0  0  0  0
    0.0000    0.0000    0.0000 C   0  0  0  0  0  0  0  0  0  0  0  0
    0.0000    0.0000    0.0000 C   0  0  0  0  0  0  0  0  0  0  0  0
    0.0000    0.0000    0.0000 C   0  0  0  0  0  0  0  0  0  0  0  0
    0.0000    0.0000    0.0000 N   0  0  0  0  0  0  0  0  0  0  0  0
    0.0000    0.0000    0.0000 C   0  0  0  0  0  0  0  0  0  0  0  0
  1  2  1  0
  2  3  1  0
  3  4  1  0
  4  5  1  0
  5  6  2  0
  6  7  1  0
  7  8  2  0
  8  9  1  0
  9 10  2  0
 10 11  1  0
 11 12  1  0
 11 13  1  0
 13 14  1  0
 14 15  1  0
 15 16  1  0
 16 17  1  0
 17 18  1  0
 18 19  1  0
  8 20  1  0
 20 21  2  0
 20 22  1  0
 22 23  1  0
 23 24  1  0
 24 25  1  0
 25 26  2  0
 26 27  1  0
 27 28  2  0
 28 29  1  0
 29 30  2  0
 28 31  1  0
 31 32  2  0
 32 33  1  0
 33 34  2  0
 34 35  1  0
 35 36  2  0
 11  2  1  0
 15  3  1  0
 10  5  1  0
 19 17  1  0
 30 25  1  0
 36 31  1  0
M  END
>  <pIC50>  (780) 
6.96

>  <ChEMBL_ID>  (780) 
CHEMBL2347236

>  <document_journal>  (780) 
Bioorg. Med. Chem. Lett.

>  <bao_endpoint>  (780) 
BAO_0000190

>  <potential_duplicate>  (780) 
False

>  <uo_units>  (780) 
UO_0000065

>  <canonical_smiles>  (780) 
C[C@H]1C2Cc3ccc(cc3[C@@]1(C)CCN2CC4CC4)C(=O)NCCc5ccc(cc5)c6cccnc6

>  <parent_molecule_chembl_id>  (780) 
CHEMBL2347236

>  <assay_type>  (780) 
F

>  <src_id>  (780) 
1

>  <ligand_efficiency>  (780) 
None

>  <standard_flag>  (780) 
True

>  <molecule_chembl_id>  (780) 
CHEMBL2347236

>  <target_organism>  (780) 
Homo sapiens

>  <standard_units>  (780) 
nM

>  <record_id>  (780) 
1875010

>  <document_chembl_id>  (780) 
CHEMBL2346652

>  <bao_format>  (780) 
BAO_0000219

>  <data_validity_description>  (780) 
None

>  <activity_id>  (780) 
12719899

>  <standard_type>  (780) 
IC50

>  <target_chembl_id>  (780) 
CHEMBL233

>  <data_validity_comment>  (780) 
None

>  <published_value>  (780) 
110

>  <document_year>  (780) 
2013

>  <target_pref_name>  (780) 
Mu opioid receptor

>  <assay_chembl_id>  (780) 
CHEMBL2353037

>  <standard_relation>  (780) 
=

>  <assay_description>  (780) 
Partial agonist activity at human mu opioid receptor expressed in CHO cell membrane assessed as inhibition of DAMGO-induced [35S]GTPgammaS binding after 60 mins by liquid scintillation counting

>  <published_relation>  (780) 
=

>  <standard_value>  (780) 
110

>  <qudt_units>  (780) 
http://www.openphacts.org/units/Nanomolar

>  <target_tax_id>  (780) 
9606

>  <bao_label>  (780) 
cell-based format

>  <published_units>  (780) 
nM

>  <pchembl_value>  (780) 
6.96

>  <published_type>  (780) 
IC50

>  <activity_comment>  (780) 
None

$$$$

     RDKit          

 36 41  0  0  0  0  0  0  0  0999 V2000
    0.0000    0.0000    0.0000 C   0  0  0  0  0  0  0  0  0  0  0  0
    0.0000    0.0000    0.0000 C   0  0  0  0  0  0  0  0  0  0  0  0
    0.0000    0.0000    0.0000 C   0  0  0  0  0  0  0  0  0  0  0  0
    0.0000    0.0000    0.0000 C   0  0  0  0  0  0  0  0  0  0  0  0
    0.0000    0.0000    0.0000 C   0  0  0  0  0  0  0  0  0  0  0  0
    0.0000    0.0000    0.0000 C   0  0  0  0  0  0  0  0  0  0  0  0
    0.0000    0.0000    0.0000 C   0  0  0  0  0  0  0  0  0  0  0  0
    0.0000    0.0000    0.0000 C   0  0  0  0  0  0  0  0  0  0  0  0
    0.0000    0.0000    0.0000 C   0  0  0  0  0  0  0  0  0  0  0  0
    0.0000    0.0000    0.0000 C   0  0  0  0  0  0  0  0  0  0  0  0
    0.0000    0.0000    0.0000 C   0  0  0  0  0  0  0  0  0  0  0  0
    0.0000    0.0000    0.0000 C   0  0  0  0  0  0  0  0  0  0  0  0
    0.0000    0.0000    0.0000 C   0  0  0  0  0  0  0  0  0  0  0  0
    0.0000    0.0000    0.0000 C   0  0  0  0  0  0  0  0  0  0  0  0
    0.0000    0.0000    0.0000 N   0  0  0  0  0  0  0  0  0  0  0  0
    0.0000    0.0000    0.0000 C   0  0  0  0  0  0  0  0  0  0  0  0
    0.0000    0.0000    0.0000 C   0  0  0  0  0  0  0  0  0  0  0  0
    0.0000    0.0000    0.0000 C   0  0  0  0  0  0  0  0  0  0  0  0
    0.0000    0.0000    0.0000 C   0  0  0  0  0  0  0  0  0  0  0  0
    0.0000    0.0000    0.0000 C   0  0  0  0  0  0  0  0  0  0  0  0
    0.0000    0.0000    0.0000 O   0  0  0  0  0  0  0  0  0  0  0  0
    0.0000    0.0000    0.0000 N   0  0  0  0  0  0  0  0  0  0  0  0
    0.0000    0.0000    0.0000 C   0  0  0  0  0  0  0  0  0  0  0  0
    0.0000    0.0000    0.0000 C   0  0  0  0  0  0  0  0  0  0  0  0
    0.0000    0.0000    0.0000 C   0  0  0  0  0  0  0  0  0  0  0  0
    0.0000    0.0000    0.0000 C   0  0  0  0  0  0  0  0  0  0  0  0
    0.0000    0.0000    0.0000 C   0  0  0  0  0  0  0  0  0  0  0  0
    0.0000    0.0000    0.0000 C   0  0  0  0  0  0  0  0  0  0  0  0
    0.0000    0.0000    0.0000 C   0  0  0  0  0  0  0  0  0  0  0  0
    0.0000    0.0000    0.0000 C   0  0  0  0  0  0  0  0  0  0  0  0
    0.0000    0.0000    0.0000 C   0  0  0  0  0  0  0  0  0  0  0  0
    0.0000    0.0000    0.0000 C   0  0  0  0  0  0  0  0  0  0  0  0
    0.0000    0.0000    0.0000 C   0  0  0  0  0  0  0  0  0  0  0  0
    0.0000    0.0000    0.0000 N   0  0  0  0  0  0  0  0  0  0  0  0
    0.0000    0.0000    0.0000 C   0  0  0  0  0  0  0  0  0  0  0  0
    0.0000    0.0000    0.0000 C   0  0  0  0  0  0  0  0  0  0  0  0
  1  2  1  0
  2  3  1  0
  3  4  1  0
  4  5  1  0
  5  6  2  0
  6  7  1  0
  7  8  2  0
  8  9  1  0
  9 10  2  0
 10 11  1  0
 11 12  1  0
 11 13  1  0
 13 14  1  0
 14 15  1  0
 15 16  1  0
 16 17  1  0
 17 18  1  0
 18 19  1  0
  8 20  1  0
 20 21  2  0
 20 22  1  0
 22 23  1  0
 23 24  1  0
 24 25  1  0
 25 26  2  0
 26 27  1  0
 27 28  2  0
 28 29  1  0
 29 30  2  0
 28 31  1  0
 31 32  2  0
 32 33  1  0
 33 34  2  0
 34 35  1  0
 35 36  2  0
 11  2  1  0
 15  3  1  0
 10  5  1  0
 19 17  1  0
 30 25  1  0
 36 31  1  0
M  END
>  <pIC50>  (781) 
6.92

>  <ChEMBL_ID>  (781) 
CHEMBL2347235

>  <document_journal>  (781) 
Bioorg. Med. Chem. Lett.

>  <bao_endpoint>  (781) 
BAO_0000190

>  <potential_duplicate>  (781) 
False

>  <uo_units>  (781) 
UO_0000065

>  <canonical_smiles>  (781) 
C[C@H]1C2Cc3ccc(cc3[C@@]1(C)CCN2CC4CC4)C(=O)NCCc5ccc(cc5)c6ccncc6

>  <parent_molecule_chembl_id>  (781) 
CHEMBL2347235

>  <assay_type>  (781) 
F

>  <src_id>  (781) 
1

>  <ligand_efficiency>  (781) 
None

>  <standard_flag>  (781) 
True

>  <molecule_chembl_id>  (781) 
CHEMBL2347235

>  <target_organism>  (781) 
Homo sapiens

>  <standard_units>  (781) 
nM

>  <record_id>  (781) 
1875009

>  <document_chembl_id>  (781) 
CHEMBL2346652

>  <bao_format>  (781) 
BAO_0000219

>  <data_validity_description>  (781) 
None

>  <activity_id>  (781) 
12719900

>  <standard_type>  (781) 
IC50

>  <target_chembl_id>  (781) 
CHEMBL233

>  <data_validity_comment>  (781) 
None

>  <published_value>  (781) 
120

>  <document_year>  (781) 
2013

>  <target_pref_name>  (781) 
Mu opioid receptor

>  <assay_chembl_id>  (781) 
CHEMBL2353037

>  <standard_relation>  (781) 
=

>  <assay_description>  (781) 
Partial agonist activity at human mu opioid receptor expressed in CHO cell membrane assessed as inhibition of DAMGO-induced [35S]GTPgammaS binding after 60 mins by liquid scintillation counting

>  <published_relation>  (781) 
=

>  <standard_value>  (781) 
120

>  <qudt_units>  (781) 
http://www.openphacts.org/units/Nanomolar

>  <target_tax_id>  (781) 
9606

>  <bao_label>  (781) 
cell-based format

>  <published_units>  (781) 
nM

>  <pchembl_value>  (781) 
6.92

>  <published_type>  (781) 
IC50

>  <activity_comment>  (781) 
None

$$$$

     RDKit          

 27 32  0  0  0  0  0  0  0  0999 V2000
    0.0000    0.0000    0.0000 C   0  0  0  0  0  0  0  0  0  0  0  0
    0.0000    0.0000    0.0000 N   0  0  0  0  0  0  0  0  0  0  0  0
    0.0000    0.0000    0.0000 C   0  0  0  0  0  0  0  0  0  0  0  0
    0.0000    0.0000    0.0000 N   0  0  0  0  0  0  0  0  0  0  0  0
    0.0000    0.0000    0.0000 C   0  0  0  0  0  0  0  0  0  0  0  0
    0.0000    0.0000    0.0000 C   0  0  0  0  0  0  0  0  0  0  0  0
    0.0000    0.0000    0.0000 C   0  0  0  0  0  0  0  0  0  0  0  0
    0.0000    0.0000    0.0000 C   0  0  0  0  0  0  0  0  0  0  0  0
    0.0000    0.0000    0.0000 C   0  0  0  0  0  0  0  0  0  0  0  0
    0.0000    0.0000    0.0000 N   0  0  0  0  0  0  0  0  0  0  0  0
    0.0000    0.0000    0.0000 C   0  0  0  0  0  0  0  0  0  0  0  0
    0.0000    0.0000    0.0000 C   0  0  0  0  0  0  0  0  0  0  0  0
    0.0000    0.0000    0.0000 C   0  0  0  0  0  0  0  0  0  0  0  0
    0.0000    0.0000    0.0000 C   0  0  0  0  0  0  0  0  0  0  0  0
    0.0000    0.0000    0.0000 C   0  0  0  0  0  0  0  0  0  0  0  0
    0.0000    0.0000    0.0000 C   0  0  0  0  0  0  0  0  0  0  0  0
    0.0000    0.0000    0.0000 C   0  0  0  0  0  0  0  0  0  0  0  0
    0.0000    0.0000    0.0000 C   0  0  0  0  0  0  0  0  0  0  0  0
    0.0000    0.0000    0.0000 C   0  0  0  0  0  0  0  0  0  0  0  0
    0.0000    0.0000    0.0000 C   0  0  0  0  0  0  0  0  0  0  0  0
    0.0000    0.0000    0.0000 O   0  0  0  0  0  0  0  0  0  0  0  0
    0.0000    0.0000    0.0000 C   0  0  0  0  0  0  0  0  0  0  0  0
    0.0000    0.0000    0.0000 C   0  0  0  0  0  0  0  0  0  0  0  0
    0.0000    0.0000    0.0000 C   0  0  0  0  0  0  0  0  0  0  0  0
    0.0000    0.0000    0.0000 C   0  0  0  0  0  0  0  0  0  0  0  0
    0.0000    0.0000    0.0000 C   0  0  0  0  0  0  0  0  0  0  0  0
    0.0000    0.0000    0.0000 S   0  0  0  0  0  0  0  0  0  0  0  0
  1  2  1  0
  2  3  1  0
  3  4  2  0
  4  5  1  0
  5  6  1  0
  6  7  1  0
  7  8  1  0
  8  9  1  0
  9 10  1  0
 10 11  1  0
 11 12  1  0
 12 13  1  0
 13 14  1  0
 10 15  1  0
 15 16  1  0
 16 17  1  0
 17 18  2  0
 18 19  1  0
 19 20  2  0
 20 21  1  0
 20 22  1  0
 22 23  2  0
 15 24  1  0
 24 25  1  0
 25 26  1  0
 26 27  1  0
 27  3  1  0
 26  5  2  0
 23  7  1  0
 24  7  1  0
 14 12  1  0
 23 17  1  0
M  END
>  <pIC50>  (782) 
8.575

>  <ChEMBL_ID>  (782) 
CHEMBL3086308

>  <document_journal>  (782) 
J. Med. Chem.

>  <bao_endpoint>  (782) 
BAO_0000190

>  <potential_duplicate>  (782) 
False

>  <uo_units>  (782) 
UO_0000065

>  <canonical_smiles>  (782) 
Br.CNc1nc2C[C@]34CCN(CC5CC5)[C@H](Cc6ccc(O)cc36)[C@@H]4Cc2s1

>  <parent_molecule_chembl_id>  (782) 
CHEMBL3139481

>  <assay_type>  (782) 
F

>  <src_id>  (782) 
1

>  <ligand_efficiency>  (782) 
None

>  <standard_flag>  (782) 
True

>  <molecule_chembl_id>  (782) 
CHEMBL3086308

>  <target_organism>  (782) 
Homo sapiens

>  <standard_units>  (782) 
nM

>  <record_id>  (782) 
1948333

>  <document_chembl_id>  (782) 
CHEMBL3085732

>  <bao_format>  (782) 
BAO_0000219

>  <data_validity_description>  (782) 
None

>  <activity_id>  (782) 
13828327

>  <standard_type>  (782) 
IC50

>  <target_chembl_id>  (782) 
CHEMBL233

>  <data_validity_comment>  (782) 
None

>  <published_value>  (782) 
2.8

>  <document_year>  (782) 
2013

>  <target_pref_name>  (782) 
Mu opioid receptor

>  <assay_chembl_id>  (782) 
CHEMBL3090455

>  <standard_relation>  (782) 
=

>  <assay_description>  (782) 
Antagonist activity at human mu opioid receptor transfected in CHO cells assessed as inhibition of U50488-induced [35S]GTPgammaS binding after 60 mins by scintillation counting analysis

>  <published_relation>  (782) 
=

>  <standard_value>  (782) 
2.8

>  <qudt_units>  (782) 
http://www.openphacts.org/units/Nanomolar

>  <target_tax_id>  (782) 
9606

>  <bao_label>  (782) 
cell-based format

>  <published_units>  (782) 
nM

>  <pchembl_value>  (782) 
8.55

>  <published_type>  (782) 
IC50

>  <activity_comment>  (782) 
None

$$$$

     RDKit          

 29 34  0  0  0  0  0  0  0  0999 V2000
    0.0000    0.0000    0.0000 C   0  0  0  0  0  0  0  0  0  0  0  0
    0.0000    0.0000    0.0000 C   0  0  0  0  0  0  0  0  0  0  0  0
    0.0000    0.0000    0.0000 O   0  0  0  0  0  0  0  0  0  0  0  0
    0.0000    0.0000    0.0000 N   0  0  0  0  0  0  0  0  0  0  0  0
    0.0000    0.0000    0.0000 C   0  0  0  0  0  0  0  0  0  0  0  0
    0.0000    0.0000    0.0000 N   0  0  0  0  0  0  0  0  0  0  0  0
    0.0000    0.0000    0.0000 C   0  0  0  0  0  0  0  0  0  0  0  0
    0.0000    0.0000    0.0000 C   0  0  0  0  0  0  0  0  0  0  0  0
    0.0000    0.0000    0.0000 C   0  0  0  0  0  0  0  0  0  0  0  0
    0.0000    0.0000    0.0000 C   0  0  0  0  0  0  0  0  0  0  0  0
    0.0000    0.0000    0.0000 C   0  0  0  0  0  0  0  0  0  0  0  0
    0.0000    0.0000    0.0000 N   0  0  0  0  0  0  0  0  0  0  0  0
    0.0000    0.0000    0.0000 C   0  0  0  0  0  0  0  0  0  0  0  0
    0.0000    0.0000    0.0000 C   0  0  0  0  0  0  0  0  0  0  0  0
    0.0000    0.0000    0.0000 C   0  0  0  0  0  0  0  0  0  0  0  0
    0.0000    0.0000    0.0000 C   0  0  0  0  0  0  0  0  0  0  0  0
    0.0000    0.0000    0.0000 C   0  0  0  0  0  0  0  0  0  0  0  0
    0.0000    0.0000    0.0000 C   0  0  0  0  0  0  0  0  0  0  0  0
    0.0000    0.0000    0.0000 C   0  0  0  0  0  0  0  0  0  0  0  0
    0.0000    0.0000    0.0000 C   0  0  0  0  0  0  0  0  0  0  0  0
    0.0000    0.0000    0.0000 C   0  0  0  0  0  0  0  0  0  0  0  0
    0.0000    0.0000    0.0000 C   0  0  0  0  0  0  0  0  0  0  0  0
    0.0000    0.0000    0.0000 O   0  0  0  0  0  0  0  0  0  0  0  0
    0.0000    0.0000    0.0000 C   0  0  0  0  0  0  0  0  0  0  0  0
    0.0000    0.0000    0.0000 C   0  0  0  0  0  0  0  0  0  0  0  0
    0.0000    0.0000    0.0000 C   0  0  0  0  0  0  0  0  0  0  0  0
    0.0000    0.0000    0.0000 C   0  0  0  0  0  0  0  0  0  0  0  0
    0.0000    0.0000    0.0000 C   0  0  0  0  0  0  0  0  0  0  0  0
    0.0000    0.0000    0.0000 S   0  0  0  0  0  0  0  0  0  0  0  0
  1  2  1  0
  2  3  2  0
  2  4  1  0
  4  5  1  0
  5  6  2  0
  6  7  1  0
  7  8  1  0
  8  9  1  0
  9 10  1  0
 10 11  1  0
 11 12  1  0
 12 13  1  0
 13 14  1  0
 14 15  1  0
 15 16  1  0
 12 17  1  0
 17 18  1  0
 18 19  1  0
 19 20  2  0
 20 21  1  0
 21 22  2  0
 22 23  1  0
 22 24  1  0
 24 25  2  0
 17 26  1  0
 26 27  1  0
 27 28  1  0
 28 29  1  0
 29  5  1  0
 28  7  2  0
 25  9  1  0
 26  9  1  0
 16 14  1  0
 25 19  1  0
M  END
>  <pIC50>  (783) 
8.335

>  <ChEMBL_ID>  (783) 
CHEMBL3086305

>  <document_journal>  (783) 
J. Med. Chem.

>  <bao_endpoint>  (783) 
BAO_0000190

>  <potential_duplicate>  (783) 
False

>  <uo_units>  (783) 
UO_0000065

>  <canonical_smiles>  (783) 
CC(=O)Nc1nc2C[C@]34CCN(CC5CC5)[C@H](Cc6ccc(O)cc36)[C@@H]4Cc2s1

>  <parent_molecule_chembl_id>  (783) 
CHEMBL3086305

>  <assay_type>  (783) 
F

>  <src_id>  (783) 
1

>  <ligand_efficiency>  (783) 
None

>  <standard_flag>  (783) 
True

>  <molecule_chembl_id>  (783) 
CHEMBL3086305

>  <target_organism>  (783) 
Homo sapiens

>  <standard_units>  (783) 
nM

>  <record_id>  (783) 
1948330

>  <document_chembl_id>  (783) 
CHEMBL3085732

>  <bao_format>  (783) 
BAO_0000219

>  <data_validity_description>  (783) 
None

>  <activity_id>  (783) 
13828328

>  <standard_type>  (783) 
IC50

>  <target_chembl_id>  (783) 
CHEMBL233

>  <data_validity_comment>  (783) 
None

>  <published_value>  (783) 
12

>  <document_year>  (783) 
2013

>  <target_pref_name>  (783) 
Mu opioid receptor

>  <assay_chembl_id>  (783) 
CHEMBL3090455

>  <standard_relation>  (783) 
=

>  <assay_description>  (783) 
Antagonist activity at human mu opioid receptor transfected in CHO cells assessed as inhibition of U50488-induced [35S]GTPgammaS binding after 60 mins by scintillation counting analysis

>  <published_relation>  (783) 
=

>  <standard_value>  (783) 
12

>  <qudt_units>  (783) 
http://www.openphacts.org/units/Nanomolar

>  <target_tax_id>  (783) 
9606

>  <bao_label>  (783) 
cell-based format

>  <published_units>  (783) 
nM

>  <pchembl_value>  (783) 
7.92

>  <published_type>  (783) 
IC50

>  <activity_comment>  (783) 
None

$$$$

     RDKit          

 26 31  0  0  0  0  0  0  0  0999 V2000
    0.0000    0.0000    0.0000 N   0  0  0  0  0  0  0  0  0  0  0  0
    0.0000    0.0000    0.0000 C   0  0  0  0  0  0  0  0  0  0  0  0
    0.0000    0.0000    0.0000 N   0  0  0  0  0  0  0  0  0  0  0  0
    0.0000    0.0000    0.0000 C   0  0  0  0  0  0  0  0  0  0  0  0
    0.0000    0.0000    0.0000 C   0  0  0  0  0  0  0  0  0  0  0  0
    0.0000    0.0000    0.0000 C   0  0  0  0  0  0  0  0  0  0  0  0
    0.0000    0.0000    0.0000 C   0  0  0  0  0  0  0  0  0  0  0  0
    0.0000    0.0000    0.0000 C   0  0  0  0  0  0  0  0  0  0  0  0
    0.0000    0.0000    0.0000 N   0  0  0  0  0  0  0  0  0  0  0  0
    0.0000    0.0000    0.0000 C   0  0  0  0  0  0  0  0  0  0  0  0
    0.0000    0.0000    0.0000 C   0  0  0  0  0  0  0  0  0  0  0  0
    0.0000    0.0000    0.0000 C   0  0  0  0  0  0  0  0  0  0  0  0
    0.0000    0.0000    0.0000 C   0  0  0  0  0  0  0  0  0  0  0  0
    0.0000    0.0000    0.0000 C   0  0  0  0  0  0  0  0  0  0  0  0
    0.0000    0.0000    0.0000 C   0  0  0  0  0  0  0  0  0  0  0  0
    0.0000    0.0000    0.0000 C   0  0  0  0  0  0  0  0  0  0  0  0
    0.0000    0.0000    0.0000 C   0  0  0  0  0  0  0  0  0  0  0  0
    0.0000    0.0000    0.0000 C   0  0  0  0  0  0  0  0  0  0  0  0
    0.0000    0.0000    0.0000 C   0  0  0  0  0  0  0  0  0  0  0  0
    0.0000    0.0000    0.0000 O   0  0  0  0  0  0  0  0  0  0  0  0
    0.0000    0.0000    0.0000 C   0  0  0  0  0  0  0  0  0  0  0  0
    0.0000    0.0000    0.0000 C   0  0  0  0  0  0  0  0  0  0  0  0
    0.0000    0.0000    0.0000 C   0  0  0  0  0  0  0  0  0  0  0  0
    0.0000    0.0000    0.0000 C   0  0  0  0  0  0  0  0  0  0  0  0
    0.0000    0.0000    0.0000 C   0  0  0  0  0  0  0  0  0  0  0  0
    0.0000    0.0000    0.0000 S   0  0  0  0  0  0  0  0  0  0  0  0
  1  2  1  0
  2  3  2  0
  3  4  1  0
  4  5  1  0
  5  6  1  0
  6  7  1  0
  7  8  1  0
  8  9  1  0
  9 10  1  0
 10 11  1  0
 11 12  1  0
 12 13  1  0
  9 14  1  0
 14 15  1  0
 15 16  1  0
 16 17  2  0
 17 18  1  0
 18 19  2  0
 19 20  1  0
 19 21  1  0
 21 22  2  0
 14 23  1  0
 23 24  1  0
 24 25  1  0
 25 26  1  0
 26  2  1  0
 25  4  2  0
 22  6  1  0
 23  6  1  0
 13 11  1  0
 22 16  1  0
M  END
>  <pIC50>  (784) 
8.75

>  <ChEMBL_ID>  (784) 
CHEMBL3086304

>  <document_journal>  (784) 
J. Med. Chem.

>  <bao_endpoint>  (784) 
BAO_0000190

>  <potential_duplicate>  (784) 
False

>  <uo_units>  (784) 
UO_0000065

>  <canonical_smiles>  (784) 
Br.Nc1nc2C[C@]34CCN(CC5CC5)[C@H](Cc6ccc(O)cc36)[C@@H]4Cc2s1

>  <parent_molecule_chembl_id>  (784) 
CHEMBL226217

>  <assay_type>  (784) 
F

>  <src_id>  (784) 
1

>  <ligand_efficiency>  (784) 
None

>  <standard_flag>  (784) 
True

>  <molecule_chembl_id>  (784) 
CHEMBL3086304

>  <target_organism>  (784) 
Homo sapiens

>  <standard_units>  (784) 
nM

>  <record_id>  (784) 
1948329

>  <document_chembl_id>  (784) 
CHEMBL3085732

>  <bao_format>  (784) 
BAO_0000219

>  <data_validity_description>  (784) 
None

>  <activity_id>  (784) 
13828329

>  <standard_type>  (784) 
IC50

>  <target_chembl_id>  (784) 
CHEMBL233

>  <data_validity_comment>  (784) 
None

>  <published_value>  (784) 
1.8

>  <document_year>  (784) 
2013

>  <target_pref_name>  (784) 
Mu opioid receptor

>  <assay_chembl_id>  (784) 
CHEMBL3090455

>  <standard_relation>  (784) 
=

>  <assay_description>  (784) 
Antagonist activity at human mu opioid receptor transfected in CHO cells assessed as inhibition of U50488-induced [35S]GTPgammaS binding after 60 mins by scintillation counting analysis

>  <published_relation>  (784) 
=

>  <standard_value>  (784) 
1.8

>  <qudt_units>  (784) 
http://www.openphacts.org/units/Nanomolar

>  <target_tax_id>  (784) 
9606

>  <bao_label>  (784) 
cell-based format

>  <published_units>  (784) 
nM

>  <pchembl_value>  (784) 
8.75

>  <published_type>  (784) 
IC50

>  <activity_comment>  (784) 
None

$$$$

     RDKit          

 28 33  0  0  0  0  0  0  0  0999 V2000
    0.0000    0.0000    0.0000 C   0  0  0  0  0  0  0  0  0  0  0  0
    0.0000    0.0000    0.0000 N   0  0  0  0  0  0  0  0  0  0  0  0
    0.0000    0.0000    0.0000 C   0  0  0  0  0  0  0  0  0  0  0  0
    0.0000    0.0000    0.0000 N   0  0  0  0  0  0  0  0  0  0  0  0
    0.0000    0.0000    0.0000 C   0  0  0  0  0  0  0  0  0  0  0  0
    0.0000    0.0000    0.0000 C   0  0  0  0  0  0  0  0  0  0  0  0
    0.0000    0.0000    0.0000 C   0  0  0  0  0  0  0  0  0  0  0  0
    0.0000    0.0000    0.0000 C   0  0  0  0  0  0  0  0  0  0  0  0
    0.0000    0.0000    0.0000 C   0  0  0  0  0  0  0  0  0  0  0  0
    0.0000    0.0000    0.0000 N   0  0  0  0  0  0  0  0  0  0  0  0
    0.0000    0.0000    0.0000 C   0  0  0  0  0  0  0  0  0  0  0  0
    0.0000    0.0000    0.0000 C   0  0  0  0  0  0  0  0  0  0  0  0
    0.0000    0.0000    0.0000 C   0  0  0  0  0  0  0  0  0  0  0  0
    0.0000    0.0000    0.0000 C   0  0  0  0  0  0  0  0  0  0  0  0
    0.0000    0.0000    0.0000 C   0  0  0  0  0  0  0  0  0  0  0  0
    0.0000    0.0000    0.0000 C   0  0  0  0  0  0  0  0  0  0  0  0
    0.0000    0.0000    0.0000 C   0  0  0  0  0  0  0  0  0  0  0  0
    0.0000    0.0000    0.0000 C   0  0  0  0  0  0  0  0  0  0  0  0
    0.0000    0.0000    0.0000 C   0  0  0  0  0  0  0  0  0  0  0  0
    0.0000    0.0000    0.0000 C   0  0  0  0  0  0  0  0  0  0  0  0
    0.0000    0.0000    0.0000 O   0  0  0  0  0  0  0  0  0  0  0  0
    0.0000    0.0000    0.0000 C   0  0  0  0  0  0  0  0  0  0  0  0
    0.0000    0.0000    0.0000 C   0  0  0  0  0  0  0  0  0  0  0  0
    0.0000    0.0000    0.0000 C   0  0  0  0  0  0  0  0  0  0  0  0
    0.0000    0.0000    0.0000 C   0  0  0  0  0  0  0  0  0  0  0  0
    0.0000    0.0000    0.0000 C   0  0  0  0  0  0  0  0  0  0  0  0
    0.0000    0.0000    0.0000 C   0  0  0  0  0  0  0  0  0  0  0  0
    0.0000    0.0000    0.0000 S   0  0  0  0  0  0  0  0  0  0  0  0
  1  2  1  0
  2  3  1  0
  3  4  2  0
  4  5  1  0
  5  6  1  0
  6  7  1  0
  7  8  1  0
  8  9  1  0
  9 10  1  0
 10 11  1  0
 11 12  1  0
 12 13  1  0
 13 14  1  0
 10 15  1  0
 15 16  1  0
 16 17  1  0
 17 18  2  0
 18 19  1  0
 19 20  2  0
 20 21  1  0
 21 22  1  0
 20 23  1  0
 23 24  2  0
 15 25  1  0
 25 26  1  0
 26 27  1  0
 27 28  1  0
 28  3  1  0
 27  5  2  0
 24  7  1  0
 25  7  1  0
 14 12  1  0
 24 17  1  0
M  END
>  <pIC50>  (785) 
6.19

>  <ChEMBL_ID>  (785) 
CHEMBL3086307

>  <document_journal>  (785) 
J. Med. Chem.

>  <bao_endpoint>  (785) 
BAO_0000190

>  <potential_duplicate>  (785) 
False

>  <uo_units>  (785) 
UO_0000065

>  <canonical_smiles>  (785) 
CNc1nc2C[C@]34CCN(CC5CC5)[C@H](Cc6ccc(OC)cc36)[C@@H]4Cc2s1

>  <parent_molecule_chembl_id>  (785) 
CHEMBL3086307

>  <assay_type>  (785) 
F

>  <src_id>  (785) 
1

>  <ligand_efficiency>  (785) 
None

>  <standard_flag>  (785) 
True

>  <molecule_chembl_id>  (785) 
CHEMBL3086307

>  <target_organism>  (785) 
Homo sapiens

>  <standard_units>  (785) 
nM

>  <record_id>  (785) 
1948332

>  <document_chembl_id>  (785) 
CHEMBL3085732

>  <bao_format>  (785) 
BAO_0000219

>  <data_validity_description>  (785) 
None

>  <activity_id>  (785) 
13828337

>  <standard_type>  (785) 
IC50

>  <target_chembl_id>  (785) 
CHEMBL233

>  <data_validity_comment>  (785) 
None

>  <published_value>  (785) 
650

>  <document_year>  (785) 
2013

>  <target_pref_name>  (785) 
Mu opioid receptor

>  <assay_chembl_id>  (785) 
CHEMBL3090457

>  <standard_relation>  (785) 
=

>  <assay_description>  (785) 
Antagonist activity at human mu opioid receptor transfected in CHO cells assessed as inhibition of DAMGO-induced [35S]GTPgammaS binding after 60 mins by scintillation counting analysis

>  <published_relation>  (785) 
=

>  <standard_value>  (785) 
650

>  <qudt_units>  (785) 
http://www.openphacts.org/units/Nanomolar

>  <target_tax_id>  (785) 
9606

>  <bao_label>  (785) 
cell-based format

>  <published_units>  (785) 
nM

>  <pchembl_value>  (785) 
6.19

>  <published_type>  (785) 
IC50

>  <activity_comment>  (785) 
None

$$$$

     RDKit          

 30 35  0  0  0  0  0  0  0  0999 V2000
    0.0000    0.0000    0.0000 C   0  0  0  0  0  0  0  0  0  0  0  0
    0.0000    0.0000    0.0000 O   0  0  0  0  0  0  0  0  0  0  0  0
    0.0000    0.0000    0.0000 C   0  0  0  0  0  0  0  0  0  0  0  0
    0.0000    0.0000    0.0000 C   0  0  0  0  0  0  0  0  0  0  0  0
    0.0000    0.0000    0.0000 C   0  0  0  0  0  0  0  0  0  0  0  0
    0.0000    0.0000    0.0000 C   0  0  0  0  0  0  0  0  0  0  0  0
    0.0000    0.0000    0.0000 C   0  0  0  0  0  0  0  0  0  0  0  0
    0.0000    0.0000    0.0000 C   0  0  0  0  0  0  0  0  0  0  0  0
    0.0000    0.0000    0.0000 C   0  0  0  0  0  0  0  0  0  0  0  0
    0.0000    0.0000    0.0000 C   0  0  0  0  0  0  0  0  0  0  0  0
    0.0000    0.0000    0.0000 C   0  0  0  0  0  0  0  0  0  0  0  0
    0.0000    0.0000    0.0000 S   0  0  0  0  0  0  0  0  0  0  0  0
    0.0000    0.0000    0.0000 C   0  0  0  0  0  0  0  0  0  0  0  0
    0.0000    0.0000    0.0000 N   0  0  0  0  0  0  0  0  0  0  0  0
    0.0000    0.0000    0.0000 C   0  0  0  0  0  0  0  0  0  0  0  0
    0.0000    0.0000    0.0000 O   0  0  0  0  0  0  0  0  0  0  0  0
    0.0000    0.0000    0.0000 C   0  0  0  0  0  0  0  0  0  0  0  0
    0.0000    0.0000    0.0000 N   0  0  0  0  0  0  0  0  0  0  0  0
    0.0000    0.0000    0.0000 C   0  0  0  0  0  0  0  0  0  0  0  0
    0.0000    0.0000    0.0000 C   0  0  0  0  0  0  0  0  0  0  0  0
    0.0000    0.0000    0.0000 C   0  0  0  0  0  0  0  0  0  0  0  0
    0.0000    0.0000    0.0000 C   0  0  0  0  0  0  0  0  0  0  0  0
    0.0000    0.0000    0.0000 C   0  0  0  0  0  0  0  0  0  0  0  0
    0.0000    0.0000    0.0000 N   0  0  0  0  0  0  0  0  0  0  0  0
    0.0000    0.0000    0.0000 C   0  0  0  0  0  0  0  0  0  0  0  0
    0.0000    0.0000    0.0000 C   0  0  0  0  0  0  0  0  0  0  0  0
    0.0000    0.0000    0.0000 C   0  0  0  0  0  0  0  0  0  0  0  0
    0.0000    0.0000    0.0000 C   0  0  0  0  0  0  0  0  0  0  0  0
    0.0000    0.0000    0.0000 C   0  0  0  0  0  0  0  0  0  0  0  0
    0.0000    0.0000    0.0000 C   0  0  0  0  0  0  0  0  0  0  0  0
  1  2  1  0
  2  3  1  0
  3  4  2  0
  4  5  1  0
  5  6  2  0
  6  7  1  0
  7  8  1  0
  8  9  1  0
  9 10  1  0
 10 11  1  0
 11 12  1  0
 12 13  1  0
 13 14  1  0
 14 15  1  0
 15 16  2  0
 15 17  1  0
 13 18  2  0
 18 19  1  0
 19 20  1  0
 20 21  1  0
 21 22  1  0
 22 23  1  0
 23 24  1  0
 24 25  1  0
 25 26  1  0
 26 27  1  0
 27 28  1  0
 21 29  1  0
 29 30  2  0
 30  3  1  0
 29  6  1  0
 24  8  1  0
 21  9  1  0
 19 11  2  0
 28 26  1  0
M  END
>  <pIC50>  (786) 
6.3

>  <ChEMBL_ID>  (786) 
CHEMBL3086306

>  <document_journal>  (786) 
J. Med. Chem.

>  <bao_endpoint>  (786) 
BAO_0000190

>  <potential_duplicate>  (786) 
False

>  <uo_units>  (786) 
UO_0000065

>  <canonical_smiles>  (786) 
COc1ccc2C[C@@H]3[C@@H]4Cc5sc(NC(=O)C)nc5C[C@]4(CCN3CC6CC6)c2c1

>  <parent_molecule_chembl_id>  (786) 
CHEMBL3086306

>  <assay_type>  (786) 
F

>  <src_id>  (786) 
1

>  <ligand_efficiency>  (786) 
None

>  <standard_flag>  (786) 
True

>  <molecule_chembl_id>  (786) 
CHEMBL3086306

>  <target_organism>  (786) 
Homo sapiens

>  <standard_units>  (786) 
nM

>  <record_id>  (786) 
1948331

>  <document_chembl_id>  (786) 
CHEMBL3085732

>  <bao_format>  (786) 
BAO_0000219

>  <data_validity_description>  (786) 
None

>  <activity_id>  (786) 
13828338

>  <standard_type>  (786) 
IC50

>  <target_chembl_id>  (786) 
CHEMBL233

>  <data_validity_comment>  (786) 
None

>  <published_value>  (786) 
500

>  <document_year>  (786) 
2013

>  <target_pref_name>  (786) 
Mu opioid receptor

>  <assay_chembl_id>  (786) 
CHEMBL3090457

>  <standard_relation>  (786) 
=

>  <assay_description>  (786) 
Antagonist activity at human mu opioid receptor transfected in CHO cells assessed as inhibition of DAMGO-induced [35S]GTPgammaS binding after 60 mins by scintillation counting analysis

>  <published_relation>  (786) 
=

>  <standard_value>  (786) 
500

>  <qudt_units>  (786) 
http://www.openphacts.org/units/Nanomolar

>  <target_tax_id>  (786) 
9606

>  <bao_label>  (786) 
cell-based format

>  <published_units>  (786) 
nM

>  <pchembl_value>  (786) 
6.3

>  <published_type>  (786) 
IC50

>  <activity_comment>  (786) 
None

$$$$

     RDKit          

 27 32  0  0  0  0  0  0  0  0999 V2000
    0.0000    0.0000    0.0000 C   0  0  0  0  0  0  0  0  0  0  0  0
    0.0000    0.0000    0.0000 O   0  0  0  0  0  0  0  0  0  0  0  0
    0.0000    0.0000    0.0000 C   0  0  0  0  0  0  0  0  0  0  0  0
    0.0000    0.0000    0.0000 C   0  0  0  0  0  0  0  0  0  0  0  0
    0.0000    0.0000    0.0000 C   0  0  0  0  0  0  0  0  0  0  0  0
    0.0000    0.0000    0.0000 C   0  0  0  0  0  0  0  0  0  0  0  0
    0.0000    0.0000    0.0000 C   0  0  0  0  0  0  0  0  0  0  0  0
    0.0000    0.0000    0.0000 C   0  0  0  0  0  0  0  0  0  0  0  0
    0.0000    0.0000    0.0000 C   0  0  0  0  0  0  0  0  0  0  0  0
    0.0000    0.0000    0.0000 C   0  0  0  0  0  0  0  0  0  0  0  0
    0.0000    0.0000    0.0000 C   0  0  0  0  0  0  0  0  0  0  0  0
    0.0000    0.0000    0.0000 S   0  0  0  0  0  0  0  0  0  0  0  0
    0.0000    0.0000    0.0000 C   0  0  0  0  0  0  0  0  0  0  0  0
    0.0000    0.0000    0.0000 N   0  0  0  0  0  0  0  0  0  0  0  0
    0.0000    0.0000    0.0000 N   0  0  0  0  0  0  0  0  0  0  0  0
    0.0000    0.0000    0.0000 C   0  0  0  0  0  0  0  0  0  0  0  0
    0.0000    0.0000    0.0000 C   0  0  0  0  0  0  0  0  0  0  0  0
    0.0000    0.0000    0.0000 C   0  0  0  0  0  0  0  0  0  0  0  0
    0.0000    0.0000    0.0000 C   0  0  0  0  0  0  0  0  0  0  0  0
    0.0000    0.0000    0.0000 C   0  0  0  0  0  0  0  0  0  0  0  0
    0.0000    0.0000    0.0000 N   0  0  0  0  0  0  0  0  0  0  0  0
    0.0000    0.0000    0.0000 C   0  0  0  0  0  0  0  0  0  0  0  0
    0.0000    0.0000    0.0000 C   0  0  0  0  0  0  0  0  0  0  0  0
    0.0000    0.0000    0.0000 C   0  0  0  0  0  0  0  0  0  0  0  0
    0.0000    0.0000    0.0000 C   0  0  0  0  0  0  0  0  0  0  0  0
    0.0000    0.0000    0.0000 C   0  0  0  0  0  0  0  0  0  0  0  0
    0.0000    0.0000    0.0000 C   0  0  0  0  0  0  0  0  0  0  0  0
  1  2  1  0
  2  3  1  0
  3  4  2  0
  4  5  1  0
  5  6  2  0
  6  7  1  0
  7  8  1  0
  8  9  1  0
  9 10  1  0
 10 11  1  0
 11 12  1  0
 12 13  1  0
 13 14  1  0
 13 15  2  0
 15 16  1  0
 16 17  1  0
 17 18  1  0
 18 19  1  0
 19 20  1  0
 20 21  1  0
 21 22  1  0
 22 23  1  0
 23 24  1  0
 24 25  1  0
 18 26  1  0
 26 27  2  0
 27  3  1  0
 26  6  1  0
 21  8  1  0
 18  9  1  0
 16 11  2  0
 25 23  1  0
M  END
>  <pIC50>  (787) 
6.19

>  <ChEMBL_ID>  (787) 
CHEMBL3086303

>  <document_journal>  (787) 
J. Med. Chem.

>  <bao_endpoint>  (787) 
BAO_0000190

>  <potential_duplicate>  (787) 
False

>  <uo_units>  (787) 
UO_0000065

>  <canonical_smiles>  (787) 
COc1ccc2C[C@@H]3[C@@H]4Cc5sc(N)nc5C[C@]4(CCN3CC6CC6)c2c1

>  <parent_molecule_chembl_id>  (787) 
CHEMBL3086303

>  <assay_type>  (787) 
F

>  <src_id>  (787) 
1

>  <ligand_efficiency>  (787) 
None

>  <standard_flag>  (787) 
True

>  <molecule_chembl_id>  (787) 
CHEMBL3086303

>  <target_organism>  (787) 
Homo sapiens

>  <standard_units>  (787) 
nM

>  <record_id>  (787) 
1948328

>  <document_chembl_id>  (787) 
CHEMBL3085732

>  <bao_format>  (787) 
BAO_0000219

>  <data_validity_description>  (787) 
None

>  <activity_id>  (787) 
13828340

>  <standard_type>  (787) 
IC50

>  <target_chembl_id>  (787) 
CHEMBL233

>  <data_validity_comment>  (787) 
None

>  <published_value>  (787) 
640

>  <document_year>  (787) 
2013

>  <target_pref_name>  (787) 
Mu opioid receptor

>  <assay_chembl_id>  (787) 
CHEMBL3090457

>  <standard_relation>  (787) 
=

>  <assay_description>  (787) 
Antagonist activity at human mu opioid receptor transfected in CHO cells assessed as inhibition of DAMGO-induced [35S]GTPgammaS binding after 60 mins by scintillation counting analysis

>  <published_relation>  (787) 
=

>  <standard_value>  (787) 
640

>  <qudt_units>  (787) 
http://www.openphacts.org/units/Nanomolar

>  <target_tax_id>  (787) 
9606

>  <bao_label>  (787) 
cell-based format

>  <published_units>  (787) 
nM

>  <pchembl_value>  (787) 
6.19

>  <published_type>  (787) 
IC50

>  <activity_comment>  (787) 
None

$$$$

     RDKit          

 33 37  0  0  0  0  0  0  0  0999 V2000
    0.0000    0.0000    0.0000 C   0  0  0  0  0  0  0  0  0  0  0  0
    0.0000    0.0000    0.0000 C   0  0  0  0  0  0  0  0  0  0  0  0
    0.0000    0.0000    0.0000 C   0  0  0  0  0  0  0  0  0  0  0  0
    0.0000    0.0000    0.0000 N   0  0  0  0  0  0  0  0  0  0  0  0
    0.0000    0.0000    0.0000 C   0  0  0  0  0  0  0  0  0  0  0  0
    0.0000    0.0000    0.0000 C   0  0  0  0  0  0  0  0  0  0  0  0
    0.0000    0.0000    0.0000 C   0  0  0  0  0  0  0  0  0  0  0  0
    0.0000    0.0000    0.0000 C   0  0  0  0  0  0  0  0  0  0  0  0
    0.0000    0.0000    0.0000 C   0  0  0  0  0  0  0  0  0  0  0  0
    0.0000    0.0000    0.0000 N   0  0  0  0  0  0  0  0  0  0  0  0
    0.0000    0.0000    0.0000 C   0  0  0  0  0  0  0  0  0  0  0  0
    0.0000    0.0000    0.0000 C   0  0  0  0  0  0  0  0  0  0  0  0
    0.0000    0.0000    0.0000 C   0  0  0  0  0  0  0  0  0  0  0  0
    0.0000    0.0000    0.0000 C   0  0  0  0  0  0  0  0  0  0  0  0
    0.0000    0.0000    0.0000 C   0  0  0  0  0  0  0  0  0  0  0  0
    0.0000    0.0000    0.0000 C   0  0  0  0  0  0  0  0  0  0  0  0
    0.0000    0.0000    0.0000 C   0  0  0  0  0  0  0  0  0  0  0  0
    0.0000    0.0000    0.0000 C   0  0  0  0  0  0  0  0  0  0  0  0
    0.0000    0.0000    0.0000 C   0  0  0  0  0  0  0  0  0  0  0  0
    0.0000    0.0000    0.0000 P   0  0  0  0  0  0  0  0  0  0  0  0
    0.0000    0.0000    0.0000 S   0  0  0  0  0  0  0  0  0  0  0  0
    0.0000    0.0000    0.0000 C   0  0  0  0  0  0  0  0  0  0  0  0
    0.0000    0.0000    0.0000 C   0  0  0  0  0  0  0  0  0  0  0  0
    0.0000    0.0000    0.0000 C   0  0  0  0  0  0  0  0  0  0  0  0
    0.0000    0.0000    0.0000 C   0  0  0  0  0  0  0  0  0  0  0  0
    0.0000    0.0000    0.0000 C   0  0  0  0  0  0  0  0  0  0  0  0
    0.0000    0.0000    0.0000 C   0  0  0  0  0  0  0  0  0  0  0  0
    0.0000    0.0000    0.0000 C   0  0  0  0  0  0  0  0  0  0  0  0
    0.0000    0.0000    0.0000 C   0  0  0  0  0  0  0  0  0  0  0  0
    0.0000    0.0000    0.0000 C   0  0  0  0  0  0  0  0  0  0  0  0
    0.0000    0.0000    0.0000 C   0  0  0  0  0  0  0  0  0  0  0  0
    0.0000    0.0000    0.0000 C   0  0  0  0  0  0  0  0  0  0  0  0
    0.0000    0.0000    0.0000 C   0  0  0  0  0  0  0  0  0  0  0  0
  1  2  1  0
  2  3  2  0
  3  4  1  0
  4  5  1  0
  5  6  2  0
  6  7  1  0
  7  8  2  0
  8  9  1  0
  9 10  2  0
 10 11  1  0
 11 12  1  0
 12 13  2  0
 13 14  1  0
 14 15  2  0
 15 16  1  0
 16 17  2  0
 17 18  1  0
 18 19  2  0
  3 20  1  0
 20 21  2  0
 20 22  1  0
 22 23  2  0
 23 24  1  0
 24 25  2  0
 25 26  1  0
 26 27  2  0
 20 28  1  0
 28 29  2  0
 29 30  1  0
 30 31  2  0
 31 32  1  0
 32 33  2  0
 10  2  1  0
  9  4  1  0
 19 14  1  0
 27 22  1  0
 33 28  1  0
M  CHG  1  10   1
M  END
>  <pIC50>  (788) 
6.24

>  <ChEMBL_ID>  (788) 
CHEMBL1474387

>  <document_journal>  (788) 
J. Med. Chem.

>  <bao_endpoint>  (788) 
BAO_0000190

>  <potential_duplicate>  (788) 
False

>  <uo_units>  (788) 
UO_0000065

>  <canonical_smiles>  (788) 
[Br-].Cc1c(n2ccccc2[n+]1C\C=C\c3ccccc3)P(=S)(c4ccccc4)c5ccccc5

>  <parent_molecule_chembl_id>  (788) 
CHEMBL1622930

>  <assay_type>  (788) 
B

>  <src_id>  (788) 
1

>  <ligand_efficiency>  (788) 
{u'le': u'0.26', u'bei': u'13.4', u'sei': u'12.43', u'lle': u'-1.73'}

>  <standard_flag>  (788) 
True

>  <molecule_chembl_id>  (788) 
CHEMBL1474387

>  <target_organism>  (788) 
Homo sapiens

>  <standard_units>  (788) 
nM

>  <record_id>  (788) 
1948987

>  <document_chembl_id>  (788) 
CHEMBL3085664

>  <bao_format>  (788) 
BAO_0000219

>  <data_validity_description>  (788) 
None

>  <activity_id>  (788) 
13839310

>  <standard_type>  (788) 
IC50

>  <target_chembl_id>  (788) 
CHEMBL233

>  <data_validity_comment>  (788) 
None

>  <published_value>  (788) 
580

>  <document_year>  (788) 
2013

>  <target_pref_name>  (788) 
Mu opioid receptor

>  <assay_chembl_id>  (788) 
CHEMBL3088793

>  <standard_relation>  (788) 
=

>  <assay_description>  (788) 
Displacement of radiolabeled DAMGO from human recombinant mu opioid receptor expressed in OPRM1 cells

>  <published_relation>  (788) 
=

>  <standard_value>  (788) 
580

>  <qudt_units>  (788) 
http://www.openphacts.org/units/Nanomolar

>  <target_tax_id>  (788) 
9606

>  <bao_label>  (788) 
cell-based format

>  <published_units>  (788) 
nM

>  <pchembl_value>  (788) 
6.24

>  <published_type>  (788) 
IC50

>  <activity_comment>  (788) 
None

$$$$

     RDKit          

 34 37  0  0  0  0  0  0  0  0999 V2000
    0.0000    0.0000    0.0000 C   0  0  0  0  0  0  0  0  0  0  0  0
    0.0000    0.0000    0.0000 O   0  0  0  0  0  0  0  0  0  0  0  0
    0.0000    0.0000    0.0000 C   0  0  0  0  0  0  0  0  0  0  0  0
    0.0000    0.0000    0.0000 C   0  0  0  0  0  0  0  0  0  0  0  0
    0.0000    0.0000    0.0000 C   0  0  0  0  0  0  0  0  0  0  0  0
    0.0000    0.0000    0.0000 C   0  0  0  0  0  0  0  0  0  0  0  0
    0.0000    0.0000    0.0000 C   0  0  0  0  0  0  0  0  0  0  0  0
    0.0000    0.0000    0.0000 N   0  0  0  0  0  0  0  0  0  0  0  0
    0.0000    0.0000    0.0000 C   0  0  0  0  0  0  0  0  0  0  0  0
    0.0000    0.0000    0.0000 O   0  0  0  0  0  0  0  0  0  0  0  0
    0.0000    0.0000    0.0000 C   0  0  0  0  0  0  0  0  0  0  0  0
    0.0000    0.0000    0.0000 C   0  0  0  0  0  0  0  0  0  0  0  0
    0.0000    0.0000    0.0000 C   0  0  0  0  0  0  0  0  0  0  0  0
    0.0000    0.0000    0.0000 C   0  0  0  0  0  0  0  0  0  0  0  0
    0.0000    0.0000    0.0000 N   0  0  0  0  0  0  0  0  0  0  0  0
    0.0000    0.0000    0.0000 C   0  0  0  0  0  0  0  0  0  0  0  0
    0.0000    0.0000    0.0000 C   0  0  0  0  0  0  0  0  0  0  0  0
    0.0000    0.0000    0.0000 C   0  0  0  0  0  0  0  0  0  0  0  0
    0.0000    0.0000    0.0000 C   0  0  0  0  0  0  0  0  0  0  0  0
    0.0000    0.0000    0.0000 C   0  0  0  0  0  0  0  0  0  0  0  0
    0.0000    0.0000    0.0000 N   0  0  0  0  0  0  0  0  0  0  0  0
    0.0000    0.0000    0.0000 C   0  0  0  0  0  0  0  0  0  0  0  0
    0.0000    0.0000    0.0000 C   0  0  0  0  0  0  0  0  0  0  0  0
    0.0000    0.0000    0.0000 C   0  0  0  0  0  0  0  0  0  0  0  0
    0.0000    0.0000    0.0000 C   0  0  0  0  0  0  0  0  0  0  0  0
    0.0000    0.0000    0.0000 Cl  0  0  0  0  0  0  0  0  0  0  0  0
    0.0000    0.0000    0.0000 C   0  0  0  0  0  0  0  0  0  0  0  0
    0.0000    0.0000    0.0000 C   0  0  0  0  0  0  0  0  0  0  0  0
    0.0000    0.0000    0.0000 Cl  0  0  0  0  0  0  0  0  0  0  0  0
    0.0000    0.0000    0.0000 C   0  0  0  0  0  0  0  0  0  0  0  0
    0.0000    0.0000    0.0000 C   0  0  0  0  0  0  0  0  0  0  0  0
    0.0000    0.0000    0.0000 C   0  0  0  0  0  0  0  0  0  0  0  0
    0.0000    0.0000    0.0000 O   0  0  0  0  0  0  0  0  0  0  0  0
    0.0000    0.0000    0.0000 C   0  0  0  0  0  0  0  0  0  0  0  0
  1  2  1  0
  2  3  1  0
  3  4  2  0
  4  5  1  0
  5  6  2  0
  6  7  1  0
  7  8  1  0
  8  9  1  0
  9 10  2  0
  9 11  1  0
 11 12  2  0
 12 13  1  0
 13 14  2  0
 14 15  1  0
 15 16  2  0
 16 17  1  0
 17 18  2  0
 18 19  1  0
 19 20  2  0
 20 21  1  0
 21 22  2  0
 13 23  1  0
 23 24  2  0
 24 25  1  0
 25 26  1  0
 25 27  2  0
 27 28  1  0
 28 29  1  0
 28 30  2  0
  6 31  1  0
 31 32  2  0
 32 33  1  0
 33 34  1  0
 32  3  1  0
 16 11  1  0
 22 17  1  0
 30 23  1  0
M  END
>  <pIC50>  (789) 
5.3

>  <ChEMBL_ID>  (789) 
CHEMBL3099899

>  <document_journal>  (789) 
Bioorg. Med. Chem. Lett.

>  <bao_endpoint>  (789) 
BAO_0000190

>  <potential_duplicate>  (789) 
False

>  <uo_units>  (789) 
UO_0000065

>  <canonical_smiles>  (789) 
COc1ccc(CNC(=O)c2cc(cnc2c3cccnc3)c4cc(Cl)cc(Cl)c4)cc1OC

>  <parent_molecule_chembl_id>  (789) 
CHEMBL3099899

>  <assay_type>  (789) 
B

>  <src_id>  (789) 
1

>  <ligand_efficiency>  (789) 
{u'le': u'0.21', u'bei': u'10.72', u'sei': u'7.23', u'lle': u'0.22'}

>  <standard_flag>  (789) 
True

>  <molecule_chembl_id>  (789) 
CHEMBL3099899

>  <target_organism>  (789) 
Homo sapiens

>  <standard_units>  (789) 
nM

>  <record_id>  (789) 
1957177

>  <document_chembl_id>  (789) 
CHEMBL3098111

>  <bao_format>  (789) 
BAO_0000357

>  <data_validity_description>  (789) 
None

>  <activity_id>  (789) 
13865384

>  <standard_type>  (789) 
IC50

>  <target_chembl_id>  (789) 
CHEMBL233

>  <data_validity_comment>  (789) 
None

>  <published_value>  (789) 
5.02

>  <document_year>  (789) 
2013

>  <target_pref_name>  (789) 
Mu opioid receptor

>  <assay_chembl_id>  (789) 
CHEMBL3102176

>  <standard_relation>  (789) 
=

>  <assay_description>  (789) 
Inhibition of human mu opioid receptor

>  <published_relation>  (789) 
=

>  <standard_value>  (789) 
5020

>  <qudt_units>  (789) 
http://www.openphacts.org/units/Nanomolar

>  <target_tax_id>  (789) 
9606

>  <bao_label>  (789) 
single protein format

>  <published_units>  (789) 
uM

>  <pchembl_value>  (789) 
5.3

>  <published_type>  (789) 
IC50

>  <activity_comment>  (789) 
None

$$$$

     RDKit          

 86 96  0  0  0  0  0  0  0  0999 V2000
    0.0000    0.0000    0.0000 C   0  0  0  0  0  0  0  0  0  0  0  0
    0.0000    0.0000    0.0000 C   0  0  0  0  0  0  0  0  0  0  0  0
    0.0000    0.0000    0.0000 C   0  0  0  0  0  0  0  0  0  0  0  0
    0.0000    0.0000    0.0000 C   0  0  0  0  0  0  0  0  0  0  0  0
    0.0000    0.0000    0.0000 N   0  0  0  0  0  0  0  0  0  0  0  0
    0.0000    0.0000    0.0000 N   0  0  0  0  0  0  0  0  0  0  0  0
    0.0000    0.0000    0.0000 C   0  0  0  0  0  0  0  0  0  0  0  0
    0.0000    0.0000    0.0000 C   0  0  0  0  0  0  0  0  0  0  0  0
    0.0000    0.0000    0.0000 N   0  0  0  0  0  0  0  0  0  0  0  0
    0.0000    0.0000    0.0000 C   0  0  0  0  0  0  0  0  0  0  0  0
    0.0000    0.0000    0.0000 C   0  0  0  0  0  0  0  0  0  0  0  0
    0.0000    0.0000    0.0000 C   0  0  0  0  0  0  0  0  0  0  0  0
    0.0000    0.0000    0.0000 C   0  0  0  0  0  0  0  0  0  0  0  0
    0.0000    0.0000    0.0000 C   0  0  0  0  0  0  0  0  0  0  0  0
    0.0000    0.0000    0.0000 C   0  0  0  0  0  0  0  0  0  0  0  0
    0.0000    0.0000    0.0000 C   0  0  0  0  0  0  0  0  0  0  0  0
    0.0000    0.0000    0.0000 N   0  0  0  0  0  0  0  0  0  0  0  0
    0.0000    0.0000    0.0000 C   0  0  0  0  0  0  0  0  0  0  0  0
    0.0000    0.0000    0.0000 C   0  0  0  0  0  0  0  0  0  0  0  0
    0.0000    0.0000    0.0000 C   0  0  0  0  0  0  0  0  0  0  0  0
    0.0000    0.0000    0.0000 N   0  0  0  0  0  0  0  0  0  0  0  0
    0.0000    0.0000    0.0000 C   0  0  0  0  0  0  0  0  0  0  0  0
    0.0000    0.0000    0.0000 O   0  0  0  0  0  0  0  0  0  0  0  0
    0.0000    0.0000    0.0000 C   0  0  0  0  0  0  0  0  0  0  0  0
    0.0000    0.0000    0.0000 C   0  0  0  0  0  0  0  0  0  0  0  0
    0.0000    0.0000    0.0000 C   0  0  0  0  0  0  0  0  0  0  0  0
    0.0000    0.0000    0.0000 C   0  0  0  0  0  0  0  0  0  0  0  0
    0.0000    0.0000    0.0000 F   0  0  0  0  0  0  0  0  0  0  0  0
    0.0000    0.0000    0.0000 F   0  0  0  0  0  0  0  0  0  0  0  0
    0.0000    0.0000    0.0000 C   0  0  0  0  0  0  0  0  0  0  0  0
    0.0000    0.0000    0.0000 C   0  0  0  0  0  0  0  0  0  0  0  0
    0.0000    0.0000    0.0000 C   0  0  0  0  0  0  0  0  0  0  0  0
    0.0000    0.0000    0.0000 C   0  0  0  0  0  0  0  0  0  0  0  0
    0.0000    0.0000    0.0000 C   0  0  0  0  0  0  0  0  0  0  0  0
    0.0000    0.0000    0.0000 C   0  0  0  0  0  0  0  0  0  0  0  0
    0.0000    0.0000    0.0000 N   0  0  0  0  0  0  0  0  0  0  0  0
    0.0000    0.0000    0.0000 C   0  0  0  0  0  0  0  0  0  0  0  0
    0.0000    0.0000    0.0000 O   0  0  0  0  0  0  0  0  0  0  0  0
    0.0000    0.0000    0.0000 C   0  0  0  0  0  0  0  0  0  0  0  0
    0.0000    0.0000    0.0000 O   0  0  0  0  0  0  0  0  0  0  0  0
    0.0000    0.0000    0.0000 C   0  0  0  0  0  0  0  0  0  0  0  0
    0.0000    0.0000    0.0000 C   0  0  0  0  0  0  0  0  0  0  0  0
    0.0000    0.0000    0.0000 O   0  0  0  0  0  0  0  0  0  0  0  0
    0.0000    0.0000    0.0000 N   0  0  0  0  0  0  0  0  0  0  0  0
    0.0000    0.0000    0.0000 C   0  0  0  0  0  0  0  0  0  0  0  0
    0.0000    0.0000    0.0000 C   0  0  0  0  0  0  0  0  0  0  0  0
    0.0000    0.0000    0.0000 C   0  0  0  0  0  0  0  0  0  0  0  0
    0.0000    0.0000    0.0000 C   0  0  0  0  0  0  0  0  0  0  0  0
    0.0000    0.0000    0.0000 C   0  0  0  0  0  0  0  0  0  0  0  0
    0.0000    0.0000    0.0000 C   0  0  0  0  0  0  0  0  0  0  0  0
    0.0000    0.0000    0.0000 C   0  0  0  0  0  0  0  0  0  0  0  0
    0.0000    0.0000    0.0000 N   0  0  0  0  0  0  0  0  0  0  0  0
    0.0000    0.0000    0.0000 C   0  0  0  0  0  0  0  0  0  0  0  0
    0.0000    0.0000    0.0000 O   0  0  0  0  0  0  0  0  0  0  0  0
    0.0000    0.0000    0.0000 C   0  0  0  0  0  0  0  0  0  0  0  0
    0.0000    0.0000    0.0000 O   0  0  0  0  0  0  0  0  0  0  0  0
    0.0000    0.0000    0.0000 C   0  0  0  0  0  0  0  0  0  0  0  0
    0.0000    0.0000    0.0000 C   0  0  0  0  0  0  0  0  0  0  0  0
    0.0000    0.0000    0.0000 O   0  0  0  0  0  0  0  0  0  0  0  0
    0.0000    0.0000    0.0000 N   0  0  0  0  0  0  0  0  0  0  0  0
    0.0000    0.0000    0.0000 C   0  0  0  0  0  0  0  0  0  0  0  0
    0.0000    0.0000    0.0000 C   0  0  0  0  0  0  0  0  0  0  0  0
    0.0000    0.0000    0.0000 C   0  0  0  0  0  0  0  0  0  0  0  0
    0.0000    0.0000    0.0000 C   0  0  0  0  0  0  0  0  0  0  0  0
    0.0000    0.0000    0.0000 O   0  0  0  0  0  0  0  0  0  0  0  0
    0.0000    0.0000    0.0000 C   0  0  0  0  0  0  0  0  0  0  0  0
    0.0000    0.0000    0.0000 C   0  0  0  0  0  0  0  0  0  0  0  0
    0.0000    0.0000    0.0000 C   0  0  0  0  0  0  0  0  0  0  0  0
    0.0000    0.0000    0.0000 C   0  0  0  0  0  0  0  0  0  0  0  0
    0.0000    0.0000    0.0000 C   0  0  0  0  0  0  0  0  0  0  0  0
    0.0000    0.0000    0.0000 C   0  0  0  0  0  0  0  0  0  0  0  0
    0.0000    0.0000    0.0000 O   0  0  0  0  0  0  0  0  0  0  0  0
    0.0000    0.0000    0.0000 C   0  0  0  0  0  0  0  0  0  0  0  0
    0.0000    0.0000    0.0000 O   0  0  0  0  0  0  0  0  0  0  0  0
    0.0000    0.0000    0.0000 C   0  0  0  0  0  0  0  0  0  0  0  0
    0.0000    0.0000    0.0000 C   0  0  0  0  0  0  0  0  0  0  0  0
    0.0000    0.0000    0.0000 C   0  0  0  0  0  0  0  0  0  0  0  0
    0.0000    0.0000    0.0000 C   0  0  0  0  0  0  0  0  0  0  0  0
    0.0000    0.0000    0.0000 N   0  0  0  0  0  0  0  0  0  0  0  0
    0.0000    0.0000    0.0000 C   0  0  0  0  0  0  0  0  0  0  0  0
    0.0000    0.0000    0.0000 C   0  0  0  0  0  0  0  0  0  0  0  0
    0.0000    0.0000    0.0000 C   0  0  0  0  0  0  0  0  0  0  0  0
    0.0000    0.0000    0.0000 C   0  0  0  0  0  0  0  0  0  0  0  0
    0.0000    0.0000    0.0000 C   0  0  0  0  0  0  0  0  0  0  0  0
    0.0000    0.0000    0.0000 C   0  0  0  0  0  0  0  0  0  0  0  0
    0.0000    0.0000    0.0000 C   0  0  0  0  0  0  0  0  0  0  0  0
  1  2  1  0
  2  3  1  0
  2  4  1  0
  4  5  2  0
  5  6  1  0
  6  7  2  0
  7  8  1  0
  7  9  1  0
  9 10  1  0
 10 11  1  0
 11 12  1  0
 12 13  1  0
 13 14  1  0
 14 15  1  0
 15 16  1  0
 15 17  1  0
 17 18  1  0
 18 19  1  0
 19 20  1  0
 20 21  1  0
 21 22  1  0
 22 23  2  0
 22 24  1  0
 24 25  1  0
 25 26  1  0
 26 27  1  0
 27 28  1  0
 27 29  1  0
 27 30  1  0
 30 31  1  0
 20 32  1  0
 32 33  2  0
 33 34  1  0
 34 35  2  0
 35 36  1  0
 36 37  1  0
 37 38  2  0
 37 39  1  0
 39 40  1  0
 40 41  1  0
 41 42  1  0
 42 43  2  0
 42 44  1  0
 44 45  1  0
 45 46  1  0
 46 47  1  0
 47 48  1  0
 48 49  1  0
 49 50  1  0
 50 51  1  0
 51 52  1  0
 52 53  1  0
 53 54  2  0
 53 55  1  0
 55 56  1  0
 56 57  1  0
 57 58  1  0
 58 59  2  0
 58 60  1  0
 60 61  1  0
 61 62  1  0
 62 63  1  0
 63 64  1  0
 64 65  1  0
 64 66  1  0
 66 67  1  0
 67 68  1  0
 68 69  2  0
 69 70  1  0
 70 71  2  0
 71 72  1  0
 71 73  1  0
 73 74  1  0
 74 75  1  0
 75 76  1  0
 76 77  1  0
 77 78  1  0
 78 79  1  0
 79 80  1  0
 80 81  1  0
 81 82  1  0
 82 83  1  0
 76 84  1  0
 35 85  1  0
 85 86  2  0
  9  4  1  0
 16 10  1  0
 17 12  1  0
 31 24  1  0
 86 32  1  0
 75 61  1  0
 76 64  1  0
 79 66  1  0
 84 68  1  0
 84 73  2  0
 83 81  1  0
M  END
>  <pIC50>  (790) 
7.4

>  <ChEMBL_ID>  (790) 
CHEMBL3219777

>  <document_journal>  (790) 
MedChemComm

>  <bao_endpoint>  (790) 
BAO_0000190

>  <potential_duplicate>  (790) 
False

>  <uo_units>  (790) 
UO_0000065

>  <canonical_smiles>  (790) 
CC(C)c1nnc(C)n1C2CC3CCC(C2)N3CC[C@H](NC(=O)C4CCC(F)(F)CC4)c5ccc(NC(=O)COCC(=O)NCCCCCCCNC(=O)COCC(=O)N[C@@H]6CC[C@@]7(O)[C@H]8Cc9ccc(O)c%10O[C@@H]6[C@]7(CCN8CC%11CC%11)c9%10)cc5

>  <parent_molecule_chembl_id>  (790) 
CHEMBL3219777

>  <assay_type>  (790) 
B

>  <src_id>  (790) 
1

>  <ligand_efficiency>  (790) 
{u'le': None, u'bei': u'6.18', u'sei': None, u'lle': None}

>  <standard_flag>  (790) 
True

>  <molecule_chembl_id>  (790) 
CHEMBL3219777

>  <target_organism>  (790) 
Homo sapiens

>  <standard_units>  (790) 
nM

>  <record_id>  (790) 
2074695

>  <document_chembl_id>  (790) 
CHEMBL3217593

>  <bao_format>  (790) 
BAO_0000219

>  <data_validity_description>  (790) 
None

>  <activity_id>  (790) 
14537045

>  <standard_type>  (790) 
IC50

>  <target_chembl_id>  (790) 
CHEMBL233

>  <data_validity_comment>  (790) 
None

>  <published_value>  (790) 
40

>  <document_year>  (790) 
2013

>  <target_pref_name>  (790) 
Mu opioid receptor

>  <assay_chembl_id>  (790) 
CHEMBL3227490

>  <standard_relation>  (790) 
=

>  <assay_description>  (790) 
Antagonist activity at human mu opioid receptor expressed in Gqi5 transfected CHO cells assessed as inhibition of DAMGO-stimulated Ca2+ influx preincubated for 15 mins followed by DAMGO challenge

>  <published_relation>  (790) 
=

>  <standard_value>  (790) 
40

>  <qudt_units>  (790) 
http://www.openphacts.org/units/Nanomolar

>  <target_tax_id>  (790) 
9606

>  <bao_label>  (790) 
cell-based format

>  <published_units>  (790) 
nM

>  <pchembl_value>  (790) 
7.4

>  <published_type>  (790) 
IC50

>  <activity_comment>  (790) 
None

$$$$

     RDKit          

 50 55  0  0  0  0  0  0  0  0999 V2000
    0.0000    0.0000    0.0000 C   0  0  0  0  0  0  0  0  0  0  0  0
    0.0000    0.0000    0.0000 N   0  0  0  0  0  0  0  0  0  0  0  0
    0.0000    0.0000    0.0000 C   0  0  0  0  0  0  0  0  0  0  0  0
    0.0000    0.0000    0.0000 O   0  0  0  0  0  0  0  0  0  0  0  0
    0.0000    0.0000    0.0000 C   0  0  0  0  0  0  0  0  0  0  0  0
    0.0000    0.0000    0.0000 O   0  0  0  0  0  0  0  0  0  0  0  0
    0.0000    0.0000    0.0000 C   0  0  0  0  0  0  0  0  0  0  0  0
    0.0000    0.0000    0.0000 C   0  0  0  0  0  0  0  0  0  0  0  0
    0.0000    0.0000    0.0000 O   0  0  0  0  0  0  0  0  0  0  0  0
    0.0000    0.0000    0.0000 N   0  0  0  0  0  0  0  0  0  0  0  0
    0.0000    0.0000    0.0000 C   0  0  0  0  0  0  0  0  0  0  0  0
    0.0000    0.0000    0.0000 C   0  0  0  0  0  0  0  0  0  0  0  0
    0.0000    0.0000    0.0000 C   0  0  0  0  0  0  0  0  0  0  0  0
    0.0000    0.0000    0.0000 C   0  0  0  0  0  0  0  0  0  0  0  0
    0.0000    0.0000    0.0000 C   0  0  0  0  0  0  0  0  0  0  0  0
    0.0000    0.0000    0.0000 C   0  0  0  0  0  0  0  0  0  0  0  0
    0.0000    0.0000    0.0000 C   0  0  0  0  0  0  0  0  0  0  0  0
    0.0000    0.0000    0.0000 N   0  0  0  0  0  0  0  0  0  0  0  0
    0.0000    0.0000    0.0000 C   0  0  0  0  0  0  0  0  0  0  0  0
    0.0000    0.0000    0.0000 O   0  0  0  0  0  0  0  0  0  0  0  0
    0.0000    0.0000    0.0000 C   0  0  0  0  0  0  0  0  0  0  0  0
    0.0000    0.0000    0.0000 O   0  0  0  0  0  0  0  0  0  0  0  0
    0.0000    0.0000    0.0000 C   0  0  0  0  0  0  0  0  0  0  0  0
    0.0000    0.0000    0.0000 C   0  0  0  0  0  0  0  0  0  0  0  0
    0.0000    0.0000    0.0000 O   0  0  0  0  0  0  0  0  0  0  0  0
    0.0000    0.0000    0.0000 N   0  0  0  0  0  0  0  0  0  0  0  0
    0.0000    0.0000    0.0000 C   0  0  0  0  0  0  0  0  0  0  0  0
    0.0000    0.0000    0.0000 C   0  0  0  0  0  0  0  0  0  0  0  0
    0.0000    0.0000    0.0000 C   0  0  0  0  0  0  0  0  0  0  0  0
    0.0000    0.0000    0.0000 C   0  0  0  0  0  0  0  0  0  0  0  0
    0.0000    0.0000    0.0000 O   0  0  0  0  0  0  0  0  0  0  0  0
    0.0000    0.0000    0.0000 C   0  0  0  0  0  0  0  0  0  0  0  0
    0.0000    0.0000    0.0000 C   0  0  0  0  0  0  0  0  0  0  0  0
    0.0000    0.0000    0.0000 C   0  0  0  0  0  0  0  0  0  0  0  0
    0.0000    0.0000    0.0000 C   0  0  0  0  0  0  0  0  0  0  0  0
    0.0000    0.0000    0.0000 C   0  0  0  0  0  0  0  0  0  0  0  0
    0.0000    0.0000    0.0000 C   0  0  0  0  0  0  0  0  0  0  0  0
    0.0000    0.0000    0.0000 O   0  0  0  0  0  0  0  0  0  0  0  0
    0.0000    0.0000    0.0000 C   0  0  0  0  0  0  0  0  0  0  0  0
    0.0000    0.0000    0.0000 O   0  0  0  0  0  0  0  0  0  0  0  0
    0.0000    0.0000    0.0000 C   0  0  0  0  0  0  0  0  0  0  0  0
    0.0000    0.0000    0.0000 C   0  0  0  0  0  0  0  0  0  0  0  0
    0.0000    0.0000    0.0000 C   0  0  0  0  0  0  0  0  0  0  0  0
    0.0000    0.0000    0.0000 C   0  0  0  0  0  0  0  0  0  0  0  0
    0.0000    0.0000    0.0000 N   0  0  0  0  0  0  0  0  0  0  0  0
    0.0000    0.0000    0.0000 C   0  0  0  0  0  0  0  0  0  0  0  0
    0.0000    0.0000    0.0000 C   0  0  0  0  0  0  0  0  0  0  0  0
    0.0000    0.0000    0.0000 C   0  0  0  0  0  0  0  0  0  0  0  0
    0.0000    0.0000    0.0000 C   0  0  0  0  0  0  0  0  0  0  0  0
    0.0000    0.0000    0.0000 C   0  0  0  0  0  0  0  0  0  0  0  0
  1  2  1  0
  2  3  1  0
  3  4  2  0
  3  5  1  0
  5  6  1  0
  6  7  1  0
  7  8  1  0
  8  9  2  0
  8 10  1  0
 10 11  1  0
 11 12  1  0
 12 13  1  0
 13 14  1  0
 14 15  1  0
 15 16  1  0
 16 17  1  0
 17 18  1  0
 18 19  1  0
 19 20  2  0
 19 21  1  0
 21 22  1  0
 22 23  1  0
 23 24  1  0
 24 25  2  0
 24 26  1  0
 26 27  1  0
 27 28  1  0
 28 29  1  0
 29 30  1  0
 30 31  1  0
 30 32  1  0
 32 33  1  0
 33 34  1  0
 34 35  2  0
 35 36  1  0
 36 37  2  0
 37 38  1  0
 37 39  1  0
 39 40  1  0
 40 41  1  0
 41 42  1  0
 42 43  1  0
 43 44  1  0
 44 45  1  0
 45 46  1  0
 46 47  1  0
 47 48  1  0
 48 49  1  0
 42 50  1  0
 41 27  1  0
 42 30  1  0
 45 32  1  0
 50 34  1  0
 50 39  2  0
 49 47  1  0
M  END
>  <pIC50>  (791) 
7.42

>  <ChEMBL_ID>  (791) 
CHEMBL3219778

>  <document_journal>  (791) 
MedChemComm

>  <bao_endpoint>  (791) 
BAO_0000190

>  <potential_duplicate>  (791) 
False

>  <uo_units>  (791) 
UO_0000065

>  <canonical_smiles>  (791) 
CNC(=O)COCC(=O)NCCCCCCCNC(=O)COCC(=O)N[C@@H]1CC[C@@]2(O)[C@H]3Cc4ccc(O)c5O[C@@H]1[C@]2(CCN3CC6CC6)c45

>  <parent_molecule_chembl_id>  (791) 
CHEMBL3219778

>  <assay_type>  (791) 
B

>  <src_id>  (791) 
1

>  <ligand_efficiency>  (791) 
{u'le': u'0.2', u'bei': u'10.61', u'sei': u'3.95', u'lle': u'7.23'}

>  <standard_flag>  (791) 
True

>  <molecule_chembl_id>  (791) 
CHEMBL3219778

>  <target_organism>  (791) 
Homo sapiens

>  <standard_units>  (791) 
nM

>  <record_id>  (791) 
2074696

>  <document_chembl_id>  (791) 
CHEMBL3217593

>  <bao_format>  (791) 
BAO_0000219

>  <data_validity_description>  (791) 
None

>  <activity_id>  (791) 
14537046

>  <standard_type>  (791) 
IC50

>  <target_chembl_id>  (791) 
CHEMBL233

>  <data_validity_comment>  (791) 
None

>  <published_value>  (791) 
37.8

>  <document_year>  (791) 
2013

>  <target_pref_name>  (791) 
Mu opioid receptor

>  <assay_chembl_id>  (791) 
CHEMBL3227490

>  <standard_relation>  (791) 
=

>  <assay_description>  (791) 
Antagonist activity at human mu opioid receptor expressed in Gqi5 transfected CHO cells assessed as inhibition of DAMGO-stimulated Ca2+ influx preincubated for 15 mins followed by DAMGO challenge

>  <published_relation>  (791) 
=

>  <standard_value>  (791) 
37.8

>  <qudt_units>  (791) 
http://www.openphacts.org/units/Nanomolar

>  <target_tax_id>  (791) 
9606

>  <bao_label>  (791) 
cell-based format

>  <published_units>  (791) 
nM

>  <pchembl_value>  (791) 
7.42

>  <published_type>  (791) 
IC50

>  <activity_comment>  (791) 
None

$$$$

     RDKit          

 25 27  0  0  0  0  0  0  0  0999 V2000
    0.0000    0.0000    0.0000 C   0  0  0  0  0  0  0  0  0  0  0  0
    0.0000    0.0000    0.0000 O   0  0  0  0  0  0  0  0  0  0  0  0
    0.0000    0.0000    0.0000 C   0  0  0  0  0  0  0  0  0  0  0  0
    0.0000    0.0000    0.0000 O   0  0  0  0  0  0  0  0  0  0  0  0
    0.0000    0.0000    0.0000 C   0  0  0  0  0  0  0  0  0  0  0  0
    0.0000    0.0000    0.0000 C   0  0  0  0  0  0  0  0  0  0  0  0
    0.0000    0.0000    0.0000 C   0  0  0  0  0  0  0  0  0  0  0  0
    0.0000    0.0000    0.0000 Br  0  0  0  0  0  0  0  0  0  0  0  0
    0.0000    0.0000    0.0000 C   0  0  0  0  0  0  0  0  0  0  0  0
    0.0000    0.0000    0.0000 N   0  0  0  0  0  0  0  0  0  0  0  0
    0.0000    0.0000    0.0000 C   0  0  0  0  0  0  0  0  0  0  0  0
    0.0000    0.0000    0.0000 N   0  0  0  0  0  0  0  0  0  0  0  0
    0.0000    0.0000    0.0000 C   0  0  0  0  0  0  0  0  0  0  0  0
    0.0000    0.0000    0.0000 C   0  0  0  0  0  0  0  0  0  0  0  0
    0.0000    0.0000    0.0000 C   0  0  0  0  0  0  0  0  0  0  0  0
    0.0000    0.0000    0.0000 N   0  0  0  0  0  0  0  0  0  0  0  0
    0.0000    0.0000    0.0000 C   0  0  0  0  0  0  0  0  0  0  0  0
    0.0000    0.0000    0.0000 C   0  0  0  0  0  0  0  0  0  0  0  0
    0.0000    0.0000    0.0000 C   0  0  0  0  0  0  0  0  0  0  0  0
    0.0000    0.0000    0.0000 C   0  0  0  0  0  0  0  0  0  0  0  0
    0.0000    0.0000    0.0000 C   0  0  0  0  0  0  0  0  0  0  0  0
    0.0000    0.0000    0.0000 C   0  0  0  0  0  0  0  0  0  0  0  0
    0.0000    0.0000    0.0000 C   0  0  0  0  0  0  0  0  0  0  0  0
    0.0000    0.0000    0.0000 O   0  0  0  0  0  0  0  0  0  0  0  0
    0.0000    0.0000    0.0000 C   0  0  0  0  0  0  0  0  0  0  0  0
  1  2  1  0
  2  3  1  0
  3  4  2  0
  3  5  1  0
  5  6  2  0
  6  7  1  0
  7  8  1  0
  7  9  2  0
  9 10  1  0
 10 11  2  0
 11 12  1  0
 12 13  1  0
 13 14  1  0
 14 15  1  0
 15 16  1  0
 16 17  1  0
 17 18  1  0
 18 19  1  0
 19 20  1  0
 20 21  1  0
 21 22  1  0
 15 23  1  0
 23 24  1  0
 23 25  1  0
 11  5  1  0
 25 12  1  0
 22 17  1  0
M  END
>  <pIC50>  (792) 
6.47

>  <ChEMBL_ID>  (792) 
CHEMBL3264446

>  <document_journal>  (792) 
Bioorg. Med. Chem. Lett.

>  <bao_endpoint>  (792) 
BAO_0000190

>  <potential_duplicate>  (792) 
False

>  <uo_units>  (792) 
UO_0000065

>  <canonical_smiles>  (792) 
COC(=O)c1cc(Br)cnc1N2CC[C@@H](NC3CCCCC3)[C@H](O)C2

>  <parent_molecule_chembl_id>  (792) 
CHEMBL3264446

>  <assay_type>  (792) 
B

>  <src_id>  (792) 
1

>  <ligand_efficiency>  (792) 
{u'le': u'0.35', u'bei': u'15.68', u'sei': u'8.66', u'lle': u'3.62'}

>  <standard_flag>  (792) 
True

>  <molecule_chembl_id>  (792) 
CHEMBL3264446

>  <target_organism>  (792) 
Homo sapiens

>  <standard_units>  (792) 
nM

>  <record_id>  (792) 
2103666

>  <document_chembl_id>  (792) 
CHEMBL3259577

>  <bao_format>  (792) 
BAO_0000219

>  <data_validity_description>  (792) 
None

>  <activity_id>  (792) 
14648937

>  <standard_type>  (792) 
IC50

>  <target_chembl_id>  (792) 
CHEMBL233

>  <data_validity_comment>  (792) 
None

>  <published_value>  (792) 
343

>  <document_year>  (792) 
2014

>  <target_pref_name>  (792) 
Mu opioid receptor

>  <assay_chembl_id>  (792) 
CHEMBL3268181

>  <standard_relation>  (792) 
=

>  <assay_description>  (792) 
Antagonist activity at human cloned mu opioid receptor expressed in CHO cells assessed as inhibition of DAMGO-stimulated [35S]-GTP[gammaS] binding

>  <published_relation>  (792) 
=

>  <standard_value>  (792) 
343

>  <qudt_units>  (792) 
http://www.openphacts.org/units/Nanomolar

>  <target_tax_id>  (792) 
9606

>  <bao_label>  (792) 
cell-based format

>  <published_units>  (792) 
nM

>  <pchembl_value>  (792) 
6.47

>  <published_type>  (792) 
IC50

>  <activity_comment>  (792) 
None

$$$$

     RDKit          

 28 31  0  0  0  0  0  0  0  0999 V2000
    0.0000    0.0000    0.0000 C   0  0  0  0  0  0  0  0  0  0  0  0
    0.0000    0.0000    0.0000 O   0  0  0  0  0  0  0  0  0  0  0  0
    0.0000    0.0000    0.0000 C   0  0  0  0  0  0  0  0  0  0  0  0
    0.0000    0.0000    0.0000 C   0  0  0  0  0  0  0  0  0  0  0  0
    0.0000    0.0000    0.0000 C   0  0  0  0  0  0  0  0  0  0  0  0
    0.0000    0.0000    0.0000 C   0  0  0  0  0  0  0  0  0  0  0  0
    0.0000    0.0000    0.0000 C   0  0  0  0  0  0  0  0  0  0  0  0
    0.0000    0.0000    0.0000 N   0  0  0  0  0  0  0  0  0  0  0  0
    0.0000    0.0000    0.0000 C   0  0  0  0  0  0  0  0  0  0  0  0
    0.0000    0.0000    0.0000 C   0  0  0  0  0  0  0  0  0  0  0  0
    0.0000    0.0000    0.0000 F   0  0  0  0  0  0  0  0  0  0  0  0
    0.0000    0.0000    0.0000 C   0  0  0  0  0  0  0  0  0  0  0  0
    0.0000    0.0000    0.0000 N   0  0  0  0  0  0  0  0  0  0  0  0
    0.0000    0.0000    0.0000 C   0  0  0  0  0  0  0  0  0  0  0  0
    0.0000    0.0000    0.0000 C   0  0  0  0  0  0  0  0  0  0  0  0
    0.0000    0.0000    0.0000 C   0  0  0  0  0  0  0  0  0  0  0  0
    0.0000    0.0000    0.0000 C   0  0  0  0  0  0  0  0  0  0  0  0
    0.0000    0.0000    0.0000 Br  0  0  0  0  0  0  0  0  0  0  0  0
    0.0000    0.0000    0.0000 C   0  0  0  0  0  0  0  0  0  0  0  0
    0.0000    0.0000    0.0000 C   0  0  0  0  0  0  0  0  0  0  0  0
    0.0000    0.0000    0.0000 C   0  0  0  0  0  0  0  0  0  0  0  0
    0.0000    0.0000    0.0000 C   0  0  0  0  0  0  0  0  0  0  0  0
    0.0000    0.0000    0.0000 C   0  0  0  0  0  0  0  0  0  0  0  0
    0.0000    0.0000    0.0000 Br  0  0  0  0  0  0  0  0  0  0  0  0
    0.0000    0.0000    0.0000 C   0  0  0  0  0  0  0  0  0  0  0  0
    0.0000    0.0000    0.0000 C   0  0  0  0  0  0  0  0  0  0  0  0
    0.0000    0.0000    0.0000 C   0  0  0  0  0  0  0  0  0  0  0  0
    0.0000    0.0000    0.0000 N   0  0  0  0  0  0  0  0  0  0  0  0
  1  2  1  0
  2  3  1  0
  3  4  2  0
  4  5  1  0
  5  6  2  0
  6  7  1  0
  7  8  1  0
  8  9  1  0
  9 10  1  0
 10 11  1  0
 10 12  1  0
 12 13  1  0
 13 14  1  0
 14 15  2  0
 15 16  1  0
 16 17  2  0
 17 18  1  0
 17 19  1  0
 19 20  2  0
 20 21  1  0
 21 22  2  0
 22 23  1  0
 23 24  1  0
 23 25  2  0
 25 26  1  0
 26 27  2  0
  7 28  2  0
 28  3  1  0
 27 13  1  0
 20 14  1  0
 27 21  1  0
M  END
>  <pIC50>  (793) 
5.09

>  <ChEMBL_ID>  (793) 
CHEMBL3265238

>  <document_journal>  (793) 
J. Med. Chem.

>  <bao_endpoint>  (793) 
BAO_0000190

>  <potential_duplicate>  (793) 
False

>  <uo_units>  (793) 
UO_0000065

>  <canonical_smiles>  (793) 
COc1cccc(NC[C@H](F)Cn2c3ccc(Br)cc3c4cc(Br)ccc24)n1

>  <parent_molecule_chembl_id>  (793) 
CHEMBL3265238

>  <assay_type>  (793) 
B

>  <src_id>  (793) 
1

>  <ligand_efficiency>  (793) 
{u'le': u'0.25', u'bei': u'10.03', u'sei': u'13.01', u'lle': u'-1.73'}

>  <standard_flag>  (793) 
True

>  <molecule_chembl_id>  (793) 
CHEMBL3265238

>  <target_organism>  (793) 
Homo sapiens

>  <standard_units>  (793) 
nM

>  <record_id>  (793) 
2104651

>  <document_chembl_id>  (793) 
CHEMBL3259666

>  <bao_format>  (793) 
BAO_0000357

>  <data_validity_description>  (793) 
None

>  <activity_id>  (793) 
14653026

>  <standard_type>  (793) 
IC50

>  <target_chembl_id>  (793) 
CHEMBL233

>  <data_validity_comment>  (793) 
None

>  <published_value>  (793) 
8.2

>  <document_year>  (793) 
2014

>  <target_pref_name>  (793) 
Mu opioid receptor

>  <assay_chembl_id>  (793) 
CHEMBL3266313

>  <standard_relation>  (793) 
=

>  <assay_description>  (793) 
Inhibition of mu opioid receptor (unknown origin)

>  <published_relation>  (793) 
=

>  <standard_value>  (793) 
8200

>  <qudt_units>  (793) 
http://www.openphacts.org/units/Nanomolar

>  <target_tax_id>  (793) 
9606

>  <bao_label>  (793) 
single protein format

>  <published_units>  (793) 
uM

>  <pchembl_value>  (793) 
5.09

>  <published_type>  (793) 
IC50

>  <activity_comment>  (793) 
None

$$$$

     RDKit          

 27 30  0  0  0  0  0  0  0  0999 V2000
    0.0000    0.0000    0.0000 C   0  0  0  0  0  0  0  0  0  0  0  0
    0.0000    0.0000    0.0000 N   0  0  0  0  0  0  0  0  0  0  0  0
    0.0000    0.0000    0.0000 N   0  0  0  0  0  0  0  0  0  0  0  0
    0.0000    0.0000    0.0000 C   0  0  0  0  0  0  0  0  0  0  0  0
    0.0000    0.0000    0.0000 C   0  0  0  0  0  0  0  0  0  0  0  0
    0.0000    0.0000    0.0000 C   0  0  0  0  0  0  0  0  0  0  0  0
    0.0000    0.0000    0.0000 O   0  0  0  0  0  0  0  0  0  0  0  0
    0.0000    0.0000    0.0000 N   0  0  0  0  0  0  0  0  0  0  0  0
    0.0000    0.0000    0.0000 C   0  0  0  0  0  0  0  0  0  0  0  0
    0.0000    0.0000    0.0000 C   0  0  0  0  0  0  0  0  0  0  0  0
    0.0000    0.0000    0.0000 C   0  0  0  0  0  0  0  0  0  0  0  0
    0.0000    0.0000    0.0000 C   0  0  0  0  0  0  0  0  0  0  0  0
    0.0000    0.0000    0.0000 C   0  0  0  0  0  0  0  0  0  0  0  0
    0.0000    0.0000    0.0000 N   0  0  0  0  0  0  0  0  0  0  0  0
    0.0000    0.0000    0.0000 C   0  0  0  0  0  0  0  0  0  0  0  0
    0.0000    0.0000    0.0000 C   0  0  0  0  0  0  0  0  0  0  0  0
    0.0000    0.0000    0.0000 C   0  0  0  0  0  0  0  0  0  0  0  0
    0.0000    0.0000    0.0000 O   0  0  0  0  0  0  0  0  0  0  0  0
    0.0000    0.0000    0.0000 N   0  0  0  0  0  0  0  0  0  0  0  0
    0.0000    0.0000    0.0000 C   0  0  0  0  0  0  0  0  0  0  0  0
    0.0000    0.0000    0.0000 C   0  0  0  0  0  0  0  0  0  0  0  0
    0.0000    0.0000    0.0000 C   0  0  0  0  0  0  0  0  0  0  0  0
    0.0000    0.0000    0.0000 C   0  0  0  0  0  0  0  0  0  0  0  0
    0.0000    0.0000    0.0000 C   0  0  0  0  0  0  0  0  0  0  0  0
    0.0000    0.0000    0.0000 C   0  0  0  0  0  0  0  0  0  0  0  0
    0.0000    0.0000    0.0000 C   0  0  0  0  0  0  0  0  0  0  0  0
    0.0000    0.0000    0.0000 Cl  0  0  0  0  0  0  0  0  0  0  0  0
  1  2  1  0
  2  3  1  0
  3  4  2  0
  4  5  1  0
  5  6  1  0
  6  7  2  0
  6  8  1  0
  8  9  1  0
  9 10  1  0
 10 11  1  0
 11 12  1  0
 12 13  1  0
 11 14  1  0
 14 15  1  0
 15 16  2  0
 16 17  1  0
 17 18  2  0
 17 19  1  0
 19 20  1  0
 20 21  2  0
 21 22  1  0
 22 23  2  0
 23 24  1  0
 24 25  2  0
  5 26  2  0
 26 27  1  0
 26  2  1  0
 13  8  1  0
 25 15  1  0
 25 20  1  0
M  END
>  <pIC50>  (794) 
4.66

>  <ChEMBL_ID>  (794) 
CHEMBL3290766

>  <document_journal>  (794) 
J. Med. Chem.

>  <bao_endpoint>  (794) 
BAO_0000190

>  <potential_duplicate>  (794) 
False

>  <uo_units>  (794) 
UO_0000065

>  <canonical_smiles>  (794) 
Cn1ncc(C(=O)N2CCC(CC2)NC3=CC(=O)Nc4ccccc34)c1Cl

>  <parent_molecule_chembl_id>  (794) 
CHEMBL3290766

>  <assay_type>  (794) 
B

>  <src_id>  (794) 
1

>  <ligand_efficiency>  (794) 
{u'le': u'0.24', u'bei': u'12.08', u'sei': u'5.88', u'lle': u'4.03'}

>  <standard_flag>  (794) 
True

>  <molecule_chembl_id>  (794) 
CHEMBL3290766

>  <target_organism>  (794) 
Homo sapiens

>  <standard_units>  (794) 
nM

>  <record_id>  (794) 
2118841

>  <document_chembl_id>  (794) 
CHEMBL3286182

>  <bao_format>  (794) 
BAO_0000357

>  <data_validity_description>  (794) 
None

>  <activity_id>  (794) 
14744281

>  <standard_type>  (794) 
IC50

>  <target_chembl_id>  (794) 
CHEMBL233

>  <data_validity_comment>  (794) 
None

>  <published_value>  (794) 
21.9

>  <document_year>  (794) 
2014

>  <target_pref_name>  (794) 
Mu opioid receptor

>  <assay_chembl_id>  (794) 
CHEMBL3296312

>  <standard_relation>  (794) 
=

>  <assay_description>  (794) 
Inhibition of mu opioid receptor (unknown origin)

>  <published_relation>  (794) 
=

>  <standard_value>  (794) 
21900

>  <qudt_units>  (794) 
http://www.openphacts.org/units/Nanomolar

>  <target_tax_id>  (794) 
9606

>  <bao_label>  (794) 
single protein format

>  <published_units>  (794) 
uM

>  <pchembl_value>  (794) 
4.66

>  <published_type>  (794) 
IC50

>  <activity_comment>  (794) 
None

$$$$

     RDKit          

 21 23  0  0  0  0  0  0  0  0999 V2000
    0.0000    0.0000    0.0000 C   0  0  0  0  0  0  0  0  0  0  0  0
    0.0000    0.0000    0.0000 C   0  0  0  0  0  0  0  0  0  0  0  0
    0.0000    0.0000    0.0000 N   0  0  0  0  0  0  0  0  0  0  0  0
    0.0000    0.0000    0.0000 N   0  0  0  0  0  0  0  0  0  0  0  0
    0.0000    0.0000    0.0000 C   0  0  0  0  0  0  0  0  0  0  0  0
    0.0000    0.0000    0.0000 C   0  0  0  0  0  0  0  0  0  0  0  0
    0.0000    0.0000    0.0000 C   0  0  0  0  0  0  0  0  0  0  0  0
    0.0000    0.0000    0.0000 C   0  0  0  0  0  0  0  0  0  0  0  0
    0.0000    0.0000    0.0000 C   0  0  0  0  0  0  0  0  0  0  0  0
    0.0000    0.0000    0.0000 C   0  0  0  0  0  0  0  0  0  0  0  0
    0.0000    0.0000    0.0000 C   0  0  0  0  0  0  0  0  0  0  0  0
    0.0000    0.0000    0.0000 O   0  0  0  0  0  0  0  0  0  0  0  0
    0.0000    0.0000    0.0000 C   0  0  0  0  0  0  0  0  0  0  0  0
    0.0000    0.0000    0.0000 C   0  0  0  0  0  0  0  0  0  0  0  0
    0.0000    0.0000    0.0000 C   0  0  0  0  0  0  0  0  0  0  0  0
    0.0000    0.0000    0.0000 C   0  0  0  0  0  0  0  0  0  0  0  0
    0.0000    0.0000    0.0000 C   0  0  0  0  0  0  0  0  0  0  0  0
    0.0000    0.0000    0.0000 Br  0  0  0  0  0  0  0  0  0  0  0  0
    0.0000    0.0000    0.0000 C   0  0  0  0  0  0  0  0  0  0  0  0
    0.0000    0.0000    0.0000 C   0  0  0  0  0  0  0  0  0  0  0  0
    0.0000    0.0000    0.0000 Br  0  0  0  0  0  0  0  0  0  0  0  0
  1  2  1  0
  2  3  2  0
  3  4  1  0
  4  5  1  0
  5  6  1  0
  6  7  1  0
  7  8  1  0
  7  9  1  0
  7 10  1  0
 10 11  1  0
 11 12  1  0
 11 13  1  0
  4 14  1  0
 14 15  2  0
 15 16  1  0
 16 17  2  0
 17 18  1  0
 17 19  1  0
 19 20  2  0
 20 21  1  0
 13  2  1  0
 13  5  2  0
 20 14  1  0
M  END
>  <pIC50>  (795) 
5.47

>  <ChEMBL_ID>  (795) 
CHEMBL3325841

>  <document_journal>  (795) 
Bioorg. Med. Chem.

>  <bao_endpoint>  (795) 
BAO_0000190

>  <potential_duplicate>  (795) 
False

>  <uo_units>  (795) 
UO_0000065

>  <canonical_smiles>  (795) 
Cc1nn(c2CC(C)(C)CC(O)c12)c3ccc(Br)cc3Br

>  <parent_molecule_chembl_id>  (795) 
CHEMBL3325841

>  <assay_type>  (795) 
B

>  <src_id>  (795) 
1

>  <ligand_efficiency>  (795) 
{u'le': u'0.36', u'bei': u'13.21', u'sei': u'14.38', u'lle': u'0.89'}

>  <standard_flag>  (795) 
True

>  <molecule_chembl_id>  (795) 
CHEMBL3325841

>  <target_organism>  (795) 
Homo sapiens

>  <standard_units>  (795) 
nM

>  <record_id>  (795) 
2268103

>  <document_chembl_id>  (795) 
CHEMBL3351626

>  <bao_format>  (795) 
BAO_0000219

>  <data_validity_description>  (795) 
None

>  <activity_id>  (795) 
15004290

>  <standard_type>  (795) 
IC50

>  <target_chembl_id>  (795) 
CHEMBL233

>  <data_validity_comment>  (795) 
None

>  <published_value>  (795) 
3.38

>  <document_year>  (795) 
2014

>  <target_pref_name>  (795) 
Mu opioid receptor

>  <assay_chembl_id>  (795) 
CHEMBL3370192

>  <standard_relation>  (795) 
=

>  <assay_description>  (795) 
Agonist activity at human mu opioid receptor expressed in HEK293 cells assessed as inhibition of forskolin-induced cAMP production after 30 mins by HTRF assay

>  <published_relation>  (795) 
=

>  <standard_value>  (795) 
3380

>  <qudt_units>  (795) 
http://www.openphacts.org/units/Nanomolar

>  <target_tax_id>  (795) 
9606

>  <bao_label>  (795) 
cell-based format

>  <published_units>  (795) 
uM

>  <pchembl_value>  (795) 
5.47

>  <published_type>  (795) 
IC50

>  <activity_comment>  (795) 
None

$$$$

     RDKit          

 21 23  0  0  0  0  0  0  0  0999 V2000
    0.0000    0.0000    0.0000 C   0  0  0  0  0  0  0  0  0  0  0  0
    0.0000    0.0000    0.0000 C   0  0  0  0  0  0  0  0  0  0  0  0
    0.0000    0.0000    0.0000 C   0  0  0  0  0  0  0  0  0  0  0  0
    0.0000    0.0000    0.0000 C   0  0  0  0  0  0  0  0  0  0  0  0
    0.0000    0.0000    0.0000 C   0  0  0  0  0  0  0  0  0  0  0  0
    0.0000    0.0000    0.0000 C   0  0  0  0  0  0  0  0  0  0  0  0
    0.0000    0.0000    0.0000 Br  0  0  0  0  0  0  0  0  0  0  0  0
    0.0000    0.0000    0.0000 C   0  0  0  0  0  0  0  0  0  0  0  0
    0.0000    0.0000    0.0000 N   0  0  0  0  0  0  0  0  0  0  0  0
    0.0000    0.0000    0.0000 N   0  0  0  0  0  0  0  0  0  0  0  0
    0.0000    0.0000    0.0000 C   0  0  0  0  0  0  0  0  0  0  0  0
    0.0000    0.0000    0.0000 C   0  0  0  0  0  0  0  0  0  0  0  0
    0.0000    0.0000    0.0000 C   0  0  0  0  0  0  0  0  0  0  0  0
    0.0000    0.0000    0.0000 C   0  0  0  0  0  0  0  0  0  0  0  0
    0.0000    0.0000    0.0000 O   0  0  0  0  0  0  0  0  0  0  0  0
    0.0000    0.0000    0.0000 C   0  0  0  0  0  0  0  0  0  0  0  0
    0.0000    0.0000    0.0000 C   0  0  0  0  0  0  0  0  0  0  0  0
    0.0000    0.0000    0.0000 C   0  0  0  0  0  0  0  0  0  0  0  0
    0.0000    0.0000    0.0000 C   0  0  0  0  0  0  0  0  0  0  0  0
    0.0000    0.0000    0.0000 C   0  0  0  0  0  0  0  0  0  0  0  0
    0.0000    0.0000    0.0000 C   0  0  0  0  0  0  0  0  0  0  0  0
  1  2  1  0
  2  3  2  0
  3  4  1  0
  4  5  2  0
  5  6  1  0
  6  7  1  0
  6  8  2  0
  5  9  1  0
  9 10  1  0
 10 11  2  0
 11 12  1  0
 11 13  1  0
 13 14  1  0
 14 15  2  0
 14 16  1  0
 16 17  1  0
 17 18  1  0
 17 19  1  0
 17 20  1  0
 20 21  1  0
  8  2  1  0
 21  9  1  0
 21 13  2  0
M  END
>  <pIC50>  (796) 
5.22

>  <ChEMBL_ID>  (796) 
CHEMBL3325716

>  <document_journal>  (796) 
Bioorg. Med. Chem.

>  <bao_endpoint>  (796) 
BAO_0000190

>  <potential_duplicate>  (796) 
False

>  <uo_units>  (796) 
UO_0000065

>  <canonical_smiles>  (796) 
Cc1ccc(c(Br)c1)n2nc(C)c3C(=O)CC(C)(C)Cc23

>  <parent_molecule_chembl_id>  (796) 
CHEMBL3325716

>  <assay_type>  (796) 
B

>  <src_id>  (796) 
1

>  <ligand_efficiency>  (796) 
{u'le': u'0.34', u'bei': u'15.04', u'sei': u'14.97', u'lle': u'0.8'}

>  <standard_flag>  (796) 
True

>  <molecule_chembl_id>  (796) 
CHEMBL3325716

>  <target_organism>  (796) 
Homo sapiens

>  <standard_units>  (796) 
nM

>  <record_id>  (796) 
2268098

>  <document_chembl_id>  (796) 
CHEMBL3351626

>  <bao_format>  (796) 
BAO_0000219

>  <data_validity_description>  (796) 
None

>  <activity_id>  (796) 
15004291

>  <standard_type>  (796) 
IC50

>  <target_chembl_id>  (796) 
CHEMBL233

>  <data_validity_comment>  (796) 
None

>  <published_value>  (796) 
6

>  <document_year>  (796) 
2014

>  <target_pref_name>  (796) 
Mu opioid receptor

>  <assay_chembl_id>  (796) 
CHEMBL3370192

>  <standard_relation>  (796) 
=

>  <assay_description>  (796) 
Agonist activity at human mu opioid receptor expressed in HEK293 cells assessed as inhibition of forskolin-induced cAMP production after 30 mins by HTRF assay

>  <published_relation>  (796) 
=

>  <standard_value>  (796) 
6000

>  <qudt_units>  (796) 
http://www.openphacts.org/units/Nanomolar

>  <target_tax_id>  (796) 
9606

>  <bao_label>  (796) 
cell-based format

>  <published_units>  (796) 
uM

>  <pchembl_value>  (796) 
5.22

>  <published_type>  (796) 
IC50

>  <activity_comment>  (796) 
None

$$$$

     RDKit          

 21 23  0  0  0  0  0  0  0  0999 V2000
    0.0000    0.0000    0.0000 C   0  0  0  0  0  0  0  0  0  0  0  0
    0.0000    0.0000    0.0000 C   0  0  0  0  0  0  0  0  0  0  0  0
    0.0000    0.0000    0.0000 N   0  0  0  0  0  0  0  0  0  0  0  0
    0.0000    0.0000    0.0000 N   0  0  0  0  0  0  0  0  0  0  0  0
    0.0000    0.0000    0.0000 C   0  0  0  0  0  0  0  0  0  0  0  0
    0.0000    0.0000    0.0000 C   0  0  0  0  0  0  0  0  0  0  0  0
    0.0000    0.0000    0.0000 C   0  0  0  0  0  0  0  0  0  0  0  0
    0.0000    0.0000    0.0000 C   0  0  0  0  0  0  0  0  0  0  0  0
    0.0000    0.0000    0.0000 C   0  0  0  0  0  0  0  0  0  0  0  0
    0.0000    0.0000    0.0000 C   0  0  0  0  0  0  0  0  0  0  0  0
    0.0000    0.0000    0.0000 C   0  0  0  0  0  0  0  0  0  0  0  0
    0.0000    0.0000    0.0000 O   0  0  0  0  0  0  0  0  0  0  0  0
    0.0000    0.0000    0.0000 C   0  0  0  0  0  0  0  0  0  0  0  0
    0.0000    0.0000    0.0000 C   0  0  0  0  0  0  0  0  0  0  0  0
    0.0000    0.0000    0.0000 C   0  0  0  0  0  0  0  0  0  0  0  0
    0.0000    0.0000    0.0000 C   0  0  0  0  0  0  0  0  0  0  0  0
    0.0000    0.0000    0.0000 C   0  0  0  0  0  0  0  0  0  0  0  0
    0.0000    0.0000    0.0000 Cl  0  0  0  0  0  0  0  0  0  0  0  0
    0.0000    0.0000    0.0000 C   0  0  0  0  0  0  0  0  0  0  0  0
    0.0000    0.0000    0.0000 C   0  0  0  0  0  0  0  0  0  0  0  0
    0.0000    0.0000    0.0000 Br  0  0  0  0  0  0  0  0  0  0  0  0
  1  2  1  0
  2  3  2  0
  3  4  1  0
  4  5  1  0
  5  6  1  0
  6  7  1  0
  7  8  1  0
  7  9  1  0
  7 10  1  0
 10 11  1  0
 11 12  2  0
 11 13  1  0
  4 14  1  0
 14 15  2  0
 15 16  1  0
 16 17  2  0
 17 18  1  0
 17 19  1  0
 19 20  2  0
 20 21  1  0
 13  2  1  0
 13  5  2  0
 20 14  1  0
M  END
>  <pIC50>  (797) 
5.48

>  <ChEMBL_ID>  (797) 
CHEMBL3325715

>  <document_journal>  (797) 
Bioorg. Med. Chem.

>  <bao_endpoint>  (797) 
BAO_0000190

>  <potential_duplicate>  (797) 
False

>  <uo_units>  (797) 
UO_0000065

>  <canonical_smiles>  (797) 
Cc1nn(c2CC(C)(C)CC(=O)c12)c3ccc(Cl)cc3Br

>  <parent_molecule_chembl_id>  (797) 
CHEMBL3325715

>  <assay_type>  (797) 
B

>  <src_id>  (797) 
1

>  <ligand_efficiency>  (797) 
{u'le': u'0.36', u'bei': u'14.91', u'sei': u'15.71', u'lle': u'0.88'}

>  <standard_flag>  (797) 
True

>  <molecule_chembl_id>  (797) 
CHEMBL3325715

>  <target_organism>  (797) 
Homo sapiens

>  <standard_units>  (797) 
nM

>  <record_id>  (797) 
2268097

>  <document_chembl_id>  (797) 
CHEMBL3351626

>  <bao_format>  (797) 
BAO_0000219

>  <data_validity_description>  (797) 
None

>  <activity_id>  (797) 
15004292

>  <standard_type>  (797) 
IC50

>  <target_chembl_id>  (797) 
CHEMBL233

>  <data_validity_comment>  (797) 
None

>  <published_value>  (797) 
3.3

>  <document_year>  (797) 
2014

>  <target_pref_name>  (797) 
Mu opioid receptor

>  <assay_chembl_id>  (797) 
CHEMBL3370192

>  <standard_relation>  (797) 
=

>  <assay_description>  (797) 
Agonist activity at human mu opioid receptor expressed in HEK293 cells assessed as inhibition of forskolin-induced cAMP production after 30 mins by HTRF assay

>  <published_relation>  (797) 
=

>  <standard_value>  (797) 
3300

>  <qudt_units>  (797) 
http://www.openphacts.org/units/Nanomolar

>  <target_tax_id>  (797) 
9606

>  <bao_label>  (797) 
cell-based format

>  <published_units>  (797) 
uM

>  <pchembl_value>  (797) 
5.48

>  <published_type>  (797) 
IC50

>  <activity_comment>  (797) 
None

$$$$

     RDKit          

 21 23  0  0  0  0  0  0  0  0999 V2000
    0.0000    0.0000    0.0000 C   0  0  0  0  0  0  0  0  0  0  0  0
    0.0000    0.0000    0.0000 C   0  0  0  0  0  0  0  0  0  0  0  0
    0.0000    0.0000    0.0000 N   0  0  0  0  0  0  0  0  0  0  0  0
    0.0000    0.0000    0.0000 N   0  0  0  0  0  0  0  0  0  0  0  0
    0.0000    0.0000    0.0000 C   0  0  0  0  0  0  0  0  0  0  0  0
    0.0000    0.0000    0.0000 C   0  0  0  0  0  0  0  0  0  0  0  0
    0.0000    0.0000    0.0000 C   0  0  0  0  0  0  0  0  0  0  0  0
    0.0000    0.0000    0.0000 C   0  0  0  0  0  0  0  0  0  0  0  0
    0.0000    0.0000    0.0000 C   0  0  0  0  0  0  0  0  0  0  0  0
    0.0000    0.0000    0.0000 C   0  0  0  0  0  0  0  0  0  0  0  0
    0.0000    0.0000    0.0000 C   0  0  0  0  0  0  0  0  0  0  0  0
    0.0000    0.0000    0.0000 O   0  0  0  0  0  0  0  0  0  0  0  0
    0.0000    0.0000    0.0000 C   0  0  0  0  0  0  0  0  0  0  0  0
    0.0000    0.0000    0.0000 C   0  0  0  0  0  0  0  0  0  0  0  0
    0.0000    0.0000    0.0000 C   0  0  0  0  0  0  0  0  0  0  0  0
    0.0000    0.0000    0.0000 C   0  0  0  0  0  0  0  0  0  0  0  0
    0.0000    0.0000    0.0000 C   0  0  0  0  0  0  0  0  0  0  0  0
    0.0000    0.0000    0.0000 Br  0  0  0  0  0  0  0  0  0  0  0  0
    0.0000    0.0000    0.0000 C   0  0  0  0  0  0  0  0  0  0  0  0
    0.0000    0.0000    0.0000 C   0  0  0  0  0  0  0  0  0  0  0  0
    0.0000    0.0000    0.0000 Br  0  0  0  0  0  0  0  0  0  0  0  0
  1  2  1  0
  2  3  2  0
  3  4  1  0
  4  5  1  0
  5  6  1  0
  6  7  1  0
  7  8  1  0
  7  9  1  0
  7 10  1  0
 10 11  1  0
 11 12  2  0
 11 13  1  0
  4 14  1  0
 14 15  2  0
 15 16  1  0
 16 17  2  0
 17 18  1  0
 17 19  1  0
 19 20  2  0
 20 21  1  0
 13  2  1  0
 13  5  2  0
 20 14  1  0
M  END
>  <pIC50>  (798) 
6.14

>  <ChEMBL_ID>  (798) 
CHEMBL3325714

>  <document_journal>  (798) 
Bioorg. Med. Chem.

>  <bao_endpoint>  (798) 
BAO_0000190

>  <potential_duplicate>  (798) 
False

>  <uo_units>  (798) 
UO_0000065

>  <canonical_smiles>  (798) 
Cc1nn(c2CC(C)(C)CC(=O)c12)c3ccc(Br)cc3Br

>  <parent_molecule_chembl_id>  (798) 
CHEMBL3325714

>  <assay_type>  (798) 
B

>  <src_id>  (798) 
1

>  <ligand_efficiency>  (798) 
{u'le': u'0.4', u'bei': u'14.89', u'sei': u'17.59', u'lle': u'1.45'}

>  <standard_flag>  (798) 
True

>  <molecule_chembl_id>  (798) 
CHEMBL3325714

>  <target_organism>  (798) 
Homo sapiens

>  <standard_units>  (798) 
nM

>  <record_id>  (798) 
2268096

>  <document_chembl_id>  (798) 
CHEMBL3351626

>  <bao_format>  (798) 
BAO_0000219

>  <data_validity_description>  (798) 
None

>  <activity_id>  (798) 
15004293

>  <standard_type>  (798) 
IC50

>  <target_chembl_id>  (798) 
CHEMBL233

>  <data_validity_comment>  (798) 
None

>  <published_value>  (798) 
0.73

>  <document_year>  (798) 
2014

>  <target_pref_name>  (798) 
Mu opioid receptor

>  <assay_chembl_id>  (798) 
CHEMBL3370192

>  <standard_relation>  (798) 
=

>  <assay_description>  (798) 
Agonist activity at human mu opioid receptor expressed in HEK293 cells assessed as inhibition of forskolin-induced cAMP production after 30 mins by HTRF assay

>  <published_relation>  (798) 
=

>  <standard_value>  (798) 
730

>  <qudt_units>  (798) 
http://www.openphacts.org/units/Nanomolar

>  <target_tax_id>  (798) 
9606

>  <bao_label>  (798) 
cell-based format

>  <published_units>  (798) 
uM

>  <pchembl_value>  (798) 
6.14

>  <published_type>  (798) 
IC50

>  <activity_comment>  (798) 
None

$$$$

     RDKit          

 21 23  0  0  0  0  0  0  0  0999 V2000
    0.0000    0.0000    0.0000 C   0  0  0  0  0  0  0  0  0  0  0  0
    0.0000    0.0000    0.0000 C   0  0  0  0  0  0  0  0  0  0  0  0
    0.0000    0.0000    0.0000 N   0  0  0  0  0  0  0  0  0  0  0  0
    0.0000    0.0000    0.0000 N   0  0  0  0  0  0  0  0  0  0  0  0
    0.0000    0.0000    0.0000 C   0  0  0  0  0  0  0  0  0  0  0  0
    0.0000    0.0000    0.0000 C   0  0  0  0  0  0  0  0  0  0  0  0
    0.0000    0.0000    0.0000 C   0  0  0  0  0  0  0  0  0  0  0  0
    0.0000    0.0000    0.0000 C   0  0  0  0  0  0  0  0  0  0  0  0
    0.0000    0.0000    0.0000 C   0  0  0  0  0  0  0  0  0  0  0  0
    0.0000    0.0000    0.0000 C   0  0  0  0  0  0  0  0  0  0  0  0
    0.0000    0.0000    0.0000 C   0  0  0  0  0  0  0  0  0  0  0  0
    0.0000    0.0000    0.0000 O   0  0  0  0  0  0  0  0  0  0  0  0
    0.0000    0.0000    0.0000 C   0  0  0  0  0  0  0  0  0  0  0  0
    0.0000    0.0000    0.0000 C   0  0  0  0  0  0  0  0  0  0  0  0
    0.0000    0.0000    0.0000 C   0  0  0  0  0  0  0  0  0  0  0  0
    0.0000    0.0000    0.0000 C   0  0  0  0  0  0  0  0  0  0  0  0
    0.0000    0.0000    0.0000 C   0  0  0  0  0  0  0  0  0  0  0  0
    0.0000    0.0000    0.0000 Cl  0  0  0  0  0  0  0  0  0  0  0  0
    0.0000    0.0000    0.0000 C   0  0  0  0  0  0  0  0  0  0  0  0
    0.0000    0.0000    0.0000 C   0  0  0  0  0  0  0  0  0  0  0  0
    0.0000    0.0000    0.0000 Cl  0  0  0  0  0  0  0  0  0  0  0  0
  1  2  1  0
  2  3  2  0
  3  4  1  0
  4  5  1  0
  5  6  1  0
  6  7  1  0
  7  8  1  0
  7  9  1  0
  7 10  1  0
 10 11  1  0
 11 12  2  0
 11 13  1  0
  4 14  1  0
 14 15  2  0
 15 16  1  0
 16 17  2  0
 17 18  1  0
 17 19  1  0
 19 20  2  0
 20 21  1  0
 13  2  1  0
 13  5  2  0
 20 14  1  0
M  END
>  <pIC50>  (799) 
5.1

>  <ChEMBL_ID>  (799) 
CHEMBL3325713

>  <document_journal>  (799) 
Bioorg. Med. Chem.

>  <bao_endpoint>  (799) 
BAO_0000190

>  <potential_duplicate>  (799) 
False

>  <uo_units>  (799) 
UO_0000065

>  <canonical_smiles>  (799) 
Cc1nn(c2CC(C)(C)CC(=O)c12)c3ccc(Cl)cc3Cl

>  <parent_molecule_chembl_id>  (799) 
CHEMBL3325713

>  <assay_type>  (799) 
B

>  <src_id>  (799) 
1

>  <ligand_efficiency>  (799) 
{u'le': u'0.33', u'bei': u'15.79', u'sei': u'14.63', u'lle': u'0.58'}

>  <standard_flag>  (799) 
True

>  <molecule_chembl_id>  (799) 
CHEMBL3325713

>  <target_organism>  (799) 
Homo sapiens

>  <standard_units>  (799) 
nM

>  <record_id>  (799) 
2268095

>  <document_chembl_id>  (799) 
CHEMBL3351626

>  <bao_format>  (799) 
BAO_0000219

>  <data_validity_description>  (799) 
None

>  <activity_id>  (799) 
15004294

>  <standard_type>  (799) 
IC50

>  <target_chembl_id>  (799) 
CHEMBL233

>  <data_validity_comment>  (799) 
None

>  <published_value>  (799) 
7.89

>  <document_year>  (799) 
2014

>  <target_pref_name>  (799) 
Mu opioid receptor

>  <assay_chembl_id>  (799) 
CHEMBL3370192

>  <standard_relation>  (799) 
=

>  <assay_description>  (799) 
Agonist activity at human mu opioid receptor expressed in HEK293 cells assessed as inhibition of forskolin-induced cAMP production after 30 mins by HTRF assay

>  <published_relation>  (799) 
=

>  <standard_value>  (799) 
7890

>  <qudt_units>  (799) 
http://www.openphacts.org/units/Nanomolar

>  <target_tax_id>  (799) 
9606

>  <bao_label>  (799) 
cell-based format

>  <published_units>  (799) 
uM

>  <pchembl_value>  (799) 
5.1

>  <published_type>  (799) 
IC50

>  <activity_comment>  (799) 
None

$$$$

     RDKit          

 43 47  0  0  0  0  0  0  0  0999 V2000
    0.0000    0.0000    0.0000 C   0  0  0  0  0  0  0  0  0  0  0  0
    0.0000    0.0000    0.0000 C   0  0  0  0  0  0  0  0  0  0  0  0
    0.0000    0.0000    0.0000 C   0  0  0  0  0  0  0  0  0  0  0  0
    0.0000    0.0000    0.0000 C   0  0  0  0  0  0  0  0  0  0  0  0
    0.0000    0.0000    0.0000 N   0  0  0  0  0  0  0  0  0  0  0  0
    0.0000    0.0000    0.0000 C   0  0  0  0  0  0  0  0  0  0  0  0
    0.0000    0.0000    0.0000 C   0  0  0  0  0  0  0  0  0  0  0  0
    0.0000    0.0000    0.0000 O   0  0  0  0  0  0  0  0  0  0  0  0
    0.0000    0.0000    0.0000 C   0  0  0  0  0  0  0  0  0  0  0  0
    0.0000    0.0000    0.0000 N   0  0  0  0  0  0  0  0  0  0  0  0
    0.0000    0.0000    0.0000 C   0  0  0  0  0  0  0  0  0  0  0  0
    0.0000    0.0000    0.0000 N   0  0  0  0  0  0  0  0  0  0  0  0
    0.0000    0.0000    0.0000 C   0  0  0  0  0  0  0  0  0  0  0  0
    0.0000    0.0000    0.0000 C   0  0  0  0  0  0  0  0  0  0  0  0
    0.0000    0.0000    0.0000 C   0  0  0  0  0  0  0  0  0  0  0  0
    0.0000    0.0000    0.0000 C   0  0  0  0  0  0  0  0  0  0  0  0
    0.0000    0.0000    0.0000 F   0  0  0  0  0  0  0  0  0  0  0  0
    0.0000    0.0000    0.0000 C   0  0  0  0  0  0  0  0  0  0  0  0
    0.0000    0.0000    0.0000 C   0  0  0  0  0  0  0  0  0  0  0  0
    0.0000    0.0000    0.0000 C   0  0  0  0  0  0  0  0  0  0  0  0
    0.0000    0.0000    0.0000 C   0  0  0  0  0  0  0  0  0  0  0  0
    0.0000    0.0000    0.0000 C   0  0  0  0  0  0  0  0  0  0  0  0
    0.0000    0.0000    0.0000 N   0  0  0  0  0  0  0  0  0  0  0  0
    0.0000    0.0000    0.0000 C   0  0  0  0  0  0  0  0  0  0  0  0
    0.0000    0.0000    0.0000 C   0  0  0  0  0  0  0  0  0  0  0  0
    0.0000    0.0000    0.0000 C   0  0  0  0  0  0  0  0  0  0  0  0
    0.0000    0.0000    0.0000 C   0  0  0  0  0  0  0  0  0  0  0  0
    0.0000    0.0000    0.0000 C   0  0  0  0  0  0  0  0  0  0  0  0
    0.0000    0.0000    0.0000 C   0  0  0  0  0  0  0  0  0  0  0  0
    0.0000    0.0000    0.0000 C   0  0  0  0  0  0  0  0  0  0  0  0
    0.0000    0.0000    0.0000 C   0  0  0  0  0  0  0  0  0  0  0  0
    0.0000    0.0000    0.0000 C   0  0  0  0  0  0  0  0  0  0  0  0
    0.0000    0.0000    0.0000 C   0  0  0  0  0  0  0  0  0  0  0  0
    0.0000    0.0000    0.0000 C   0  0  0  0  0  0  0  0  0  0  0  0
    0.0000    0.0000    0.0000 C   0  0  0  0  0  0  0  0  0  0  0  0
    0.0000    0.0000    0.0000 O   0  0  0  0  0  0  0  0  0  0  0  0
    0.0000    0.0000    0.0000 C   0  0  0  0  0  0  0  0  0  0  0  0
    0.0000    0.0000    0.0000 C   0  0  0  0  0  0  0  0  0  0  0  0
    0.0000    0.0000    0.0000 C   0  0  0  0  0  0  0  0  0  0  0  0
    0.0000    0.0000    0.0000 C   0  0  0  0  0  0  0  0  0  0  0  0
    0.0000    0.0000    0.0000 C   0  0  0  0  0  0  0  0  0  0  0  0
    0.0000    0.0000    0.0000 C   0  0  0  0  0  0  0  0  0  0  0  0
    0.0000    0.0000    0.0000 C   0  0  0  0  0  0  0  0  0  0  0  0
  1  2  1  0
  2  3  1  0
  3  4  1  0
  4  5  1  0
  5  6  1  0
  6  7  1  0
  7  8  1  0
  7  9  1  0
  9 10  1  0
 10 11  1  0
 11 12  1  0
 12 13  1  0
 13 14  2  0
 14 15  1  0
 15 16  2  0
 16 17  1  0
 16 18  1  0
 18 19  2  0
 12 20  1  0
 20 21  1  0
 21 22  1  0
 22 23  1  0
 23 24  1  0
 24 25  1  0
 25 26  1  0
 26 27  1  0
 27 28  1  0
 28 29  1  0
 29 30  1  0
 30 31  1  0
 31 32  1  0
 23 33  1  0
 33 34  1  0
 20 35  1  0
 35 36  2  0
  5 37  1  0
 37 38  1  0
 38 39  2  0
 39 40  1  0
 40 41  2  0
 41 42  1  0
 42 43  2  0
 35 10  1  0
 19 13  1  0
 34 20  1  0
 32 25  1  0
 43 38  1  0
M  END
>  <pIC50>  (800) 
5.92

>  <ChEMBL_ID>  (800) 
CHEMBL3394742

>  <document_journal>  (800) 
Bioorg. Med. Chem. Lett.

>  <bao_endpoint>  (800) 
BAO_0000190

>  <potential_duplicate>  (800) 
False

>  <uo_units>  (800) 
UO_0000065

>  <canonical_smiles>  (800) 
CCCCN(C[C@H](O)CN1CN(c2ccc(F)cc2)C3(CCN(CC4CCCCCCC4)CC3)C1=O)Cc5ccccc5

>  <parent_molecule_chembl_id>  (800) 
CHEMBL3394742

>  <assay_type>  (800) 
B

>  <src_id>  (800) 
1

>  <ligand_efficiency>  (800) 
{u'le': u'0.19', u'bei': u'9.99', u'sei': u'11.79', u'lle': u'-1.17'}

>  <standard_flag>  (800) 
True

>  <molecule_chembl_id>  (800) 
CHEMBL3394742

>  <target_organism>  (800) 
Homo sapiens

>  <standard_units>  (800) 
nM

>  <record_id>  (800) 
2278526

>  <document_chembl_id>  (800) 
CHEMBL3393026

>  <bao_format>  (800) 
BAO_0000219

>  <data_validity_description>  (800) 
None

>  <activity_id>  (800) 
15147344

>  <standard_type>  (800) 
IC50

>  <target_chembl_id>  (800) 
CHEMBL233

>  <data_validity_comment>  (800) 
None

>  <published_value>  (800) 
1.19

>  <document_year>  (800) 
2015

>  <target_pref_name>  (800) 
Mu opioid receptor

>  <assay_chembl_id>  (800) 
CHEMBL3395052

>  <standard_relation>  (800) 
=

>  <assay_description>  (800) 
Displacement of [3H]DAMGO from human Mu opioid receptor expressed in HEK293 cells after 2 hrs by scintillation counting

>  <published_relation>  (800) 
=

>  <standard_value>  (800) 
1190

>  <qudt_units>  (800) 
http://www.openphacts.org/units/Nanomolar

>  <target_tax_id>  (800) 
9606

>  <bao_label>  (800) 
cell-based format

>  <published_units>  (800) 
uM

>  <pchembl_value>  (800) 
5.92

>  <published_type>  (800) 
IC50

>  <activity_comment>  (800) 
None

$$$$

     RDKit          

 44 49  0  0  0  0  0  0  0  0999 V2000
    0.0000    0.0000    0.0000 C   0  0  0  0  0  0  0  0  0  0  0  0
    0.0000    0.0000    0.0000 O   0  0  0  0  0  0  0  0  0  0  0  0
    0.0000    0.0000    0.0000 C   0  0  0  0  0  0  0  0  0  0  0  0
    0.0000    0.0000    0.0000 C   0  0  0  0  0  0  0  0  0  0  0  0
    0.0000    0.0000    0.0000 C   0  0  0  0  0  0  0  0  0  0  0  0
    0.0000    0.0000    0.0000 C   0  0  0  0  0  0  0  0  0  0  0  0
    0.0000    0.0000    0.0000 C   0  0  0  0  0  0  0  0  0  0  0  0
    0.0000    0.0000    0.0000 N   0  0  0  0  0  0  0  0  0  0  0  0
    0.0000    0.0000    0.0000 C   0  0  0  0  0  0  0  0  0  0  0  0
    0.0000    0.0000    0.0000 C   0  0  0  0  0  0  0  0  0  0  0  0
    0.0000    0.0000    0.0000 O   0  0  0  0  0  0  0  0  0  0  0  0
    0.0000    0.0000    0.0000 C   0  0  0  0  0  0  0  0  0  0  0  0
    0.0000    0.0000    0.0000 N   0  0  0  0  0  0  0  0  0  0  0  0
    0.0000    0.0000    0.0000 C   0  0  0  0  0  0  0  0  0  0  0  0
    0.0000    0.0000    0.0000 N   0  0  0  0  0  0  0  0  0  0  0  0
    0.0000    0.0000    0.0000 C   0  0  0  0  0  0  0  0  0  0  0  0
    0.0000    0.0000    0.0000 C   0  0  0  0  0  0  0  0  0  0  0  0
    0.0000    0.0000    0.0000 C   0  0  0  0  0  0  0  0  0  0  0  0
    0.0000    0.0000    0.0000 C   0  0  0  0  0  0  0  0  0  0  0  0
    0.0000    0.0000    0.0000 C   0  0  0  0  0  0  0  0  0  0  0  0
    0.0000    0.0000    0.0000 C   0  0  0  0  0  0  0  0  0  0  0  0
    0.0000    0.0000    0.0000 C   0  0  0  0  0  0  0  0  0  0  0  0
    0.0000    0.0000    0.0000 C   0  0  0  0  0  0  0  0  0  0  0  0
    0.0000    0.0000    0.0000 C   0  0  0  0  0  0  0  0  0  0  0  0
    0.0000    0.0000    0.0000 N   0  0  0  0  0  0  0  0  0  0  0  0
    0.0000    0.0000    0.0000 C   0  0  0  0  0  0  0  0  0  0  0  0
    0.0000    0.0000    0.0000 C   0  0  0  0  0  0  0  0  0  0  0  0
    0.0000    0.0000    0.0000 C   0  0  0  0  0  0  0  0  0  0  0  0
    0.0000    0.0000    0.0000 C   0  0  0  0  0  0  0  0  0  0  0  0
    0.0000    0.0000    0.0000 C   0  0  0  0  0  0  0  0  0  0  0  0
    0.0000    0.0000    0.0000 C   0  0  0  0  0  0  0  0  0  0  0  0
    0.0000    0.0000    0.0000 C   0  0  0  0  0  0  0  0  0  0  0  0
    0.0000    0.0000    0.0000 C   0  0  0  0  0  0  0  0  0  0  0  0
    0.0000    0.0000    0.0000 C   0  0  0  0  0  0  0  0  0  0  0  0
    0.0000    0.0000    0.0000 C   0  0  0  0  0  0  0  0  0  0  0  0
    0.0000    0.0000    0.0000 C   0  0  0  0  0  0  0  0  0  0  0  0
    0.0000    0.0000    0.0000 C   0  0  0  0  0  0  0  0  0  0  0  0
    0.0000    0.0000    0.0000 S   0  0  0  0  0  0  0  0  0  0  0  0
    0.0000    0.0000    0.0000 C   0  0  0  0  0  0  0  0  0  0  0  0
    0.0000    0.0000    0.0000 C   0  0  0  0  0  0  0  0  0  0  0  0
    0.0000    0.0000    0.0000 C   0  0  0  0  0  0  0  0  0  0  0  0
    0.0000    0.0000    0.0000 O   0  0  0  0  0  0  0  0  0  0  0  0
    0.0000    0.0000    0.0000 C   0  0  0  0  0  0  0  0  0  0  0  0
    0.0000    0.0000    0.0000 C   0  0  0  0  0  0  0  0  0  0  0  0
  1  2  1  0
  2  3  1  0
  3  4  2  0
  4  5  1  0
  5  6  2  0
  6  7  1  0
  7  8  1  0
  8  9  1  0
  9 10  1  0
 10 11  1  0
 10 12  1  0
 12 13  1  0
 13 14  1  0
 14 15  1  0
 15 16  1  0
 16 17  2  0
 17 18  1  0
 18 19  2  0
 19 20  1  0
 20 21  2  0
 15 22  1  0
 22 23  1  0
 23 24  1  0
 24 25  1  0
 25 26  1  0
 26 27  1  0
 27 28  1  0
 28 29  2  0
 29 30  1  0
 30 31  2  0
 31 32  1  0
 32 33  2  0
 33 34  1  0
 34 35  2  0
 35 36  1  0
 36 37  2  0
 37 38  1  0
 25 39  1  0
 39 40  1  0
 22 41  1  0
 41 42  2  0
  6 43  1  0
 43 44  2  0
 44  3  1  0
 41 13  1  0
 21 16  1  0
 40 22  1  0
 33 28  1  0
 38 34  1  0
M  END
>  <pIC50>  (801) 
7.54

>  <ChEMBL_ID>  (801) 
CHEMBL3394743

>  <document_journal>  (801) 
Bioorg. Med. Chem. Lett.

>  <bao_endpoint>  (801) 
BAO_0000190

>  <potential_duplicate>  (801) 
False

>  <uo_units>  (801) 
UO_0000065

>  <canonical_smiles>  (801) 
COc1ccc(CNC[C@H](O)CN2CN(c3ccccc3)C4(CCN(CCc5ccccc5c6cccs6)CC4)C2=O)cc1

>  <parent_molecule_chembl_id>  (801) 
CHEMBL3394743

>  <assay_type>  (801) 
B

>  <src_id>  (801) 
1

>  <ligand_efficiency>  (801) 
{u'le': u'0.23', u'bei': u'12.34', u'sei': u'7.81', u'lle': u'2.27'}

>  <standard_flag>  (801) 
True

>  <molecule_chembl_id>  (801) 
CHEMBL3394743

>  <target_organism>  (801) 
Homo sapiens

>  <standard_units>  (801) 
nM

>  <record_id>  (801) 
2278527

>  <document_chembl_id>  (801) 
CHEMBL3393026

>  <bao_format>  (801) 
BAO_0000219

>  <data_validity_description>  (801) 
None

>  <activity_id>  (801) 
15147345

>  <standard_type>  (801) 
IC50

>  <target_chembl_id>  (801) 
CHEMBL233

>  <data_validity_comment>  (801) 
None

>  <published_value>  (801) 
0.029

>  <document_year>  (801) 
2015

>  <target_pref_name>  (801) 
Mu opioid receptor

>  <assay_chembl_id>  (801) 
CHEMBL3395052

>  <standard_relation>  (801) 
=

>  <assay_description>  (801) 
Displacement of [3H]DAMGO from human Mu opioid receptor expressed in HEK293 cells after 2 hrs by scintillation counting

>  <published_relation>  (801) 
=

>  <standard_value>  (801) 
29

>  <qudt_units>  (801) 
http://www.openphacts.org/units/Nanomolar

>  <target_tax_id>  (801) 
9606

>  <bao_label>  (801) 
cell-based format

>  <published_units>  (801) 
uM

>  <pchembl_value>  (801) 
7.54

>  <published_type>  (801) 
IC50

>  <activity_comment>  (801) 
None

$$$$

     RDKit          

 44 49  0  0  0  0  0  0  0  0999 V2000
    0.0000    0.0000    0.0000 C   0  0  0  0  0  0  0  0  0  0  0  0
    0.0000    0.0000    0.0000 O   0  0  0  0  0  0  0  0  0  0  0  0
    0.0000    0.0000    0.0000 C   0  0  0  0  0  0  0  0  0  0  0  0
    0.0000    0.0000    0.0000 C   0  0  0  0  0  0  0  0  0  0  0  0
    0.0000    0.0000    0.0000 C   0  0  0  0  0  0  0  0  0  0  0  0
    0.0000    0.0000    0.0000 C   0  0  0  0  0  0  0  0  0  0  0  0
    0.0000    0.0000    0.0000 C   0  0  0  0  0  0  0  0  0  0  0  0
    0.0000    0.0000    0.0000 N   0  0  0  0  0  0  0  0  0  0  0  0
    0.0000    0.0000    0.0000 C   0  0  0  0  0  0  0  0  0  0  0  0
    0.0000    0.0000    0.0000 C   0  0  0  0  0  0  0  0  0  0  0  0
    0.0000    0.0000    0.0000 O   0  0  0  0  0  0  0  0  0  0  0  0
    0.0000    0.0000    0.0000 C   0  0  0  0  0  0  0  0  0  0  0  0
    0.0000    0.0000    0.0000 N   0  0  0  0  0  0  0  0  0  0  0  0
    0.0000    0.0000    0.0000 C   0  0  0  0  0  0  0  0  0  0  0  0
    0.0000    0.0000    0.0000 N   0  0  0  0  0  0  0  0  0  0  0  0
    0.0000    0.0000    0.0000 C   0  0  0  0  0  0  0  0  0  0  0  0
    0.0000    0.0000    0.0000 C   0  0  0  0  0  0  0  0  0  0  0  0
    0.0000    0.0000    0.0000 C   0  0  0  0  0  0  0  0  0  0  0  0
    0.0000    0.0000    0.0000 C   0  0  0  0  0  0  0  0  0  0  0  0
    0.0000    0.0000    0.0000 C   0  0  0  0  0  0  0  0  0  0  0  0
    0.0000    0.0000    0.0000 C   0  0  0  0  0  0  0  0  0  0  0  0
    0.0000    0.0000    0.0000 C   0  0  0  0  0  0  0  0  0  0  0  0
    0.0000    0.0000    0.0000 C   0  0  0  0  0  0  0  0  0  0  0  0
    0.0000    0.0000    0.0000 C   0  0  0  0  0  0  0  0  0  0  0  0
    0.0000    0.0000    0.0000 N   0  0  0  0  0  0  0  0  0  0  0  0
    0.0000    0.0000    0.0000 C   0  0  0  0  0  0  0  0  0  0  0  0
    0.0000    0.0000    0.0000 C   0  0  0  0  0  0  0  0  0  0  0  0
    0.0000    0.0000    0.0000 C   0  0  0  0  0  0  0  0  0  0  0  0
    0.0000    0.0000    0.0000 C   0  0  0  0  0  0  0  0  0  0  0  0
    0.0000    0.0000    0.0000 C   0  0  0  0  0  0  0  0  0  0  0  0
    0.0000    0.0000    0.0000 C   0  0  0  0  0  0  0  0  0  0  0  0
    0.0000    0.0000    0.0000 C   0  0  0  0  0  0  0  0  0  0  0  0
    0.0000    0.0000    0.0000 C   0  0  0  0  0  0  0  0  0  0  0  0
    0.0000    0.0000    0.0000 C   0  0  0  0  0  0  0  0  0  0  0  0
    0.0000    0.0000    0.0000 C   0  0  0  0  0  0  0  0  0  0  0  0
    0.0000    0.0000    0.0000 C   0  0  0  0  0  0  0  0  0  0  0  0
    0.0000    0.0000    0.0000 C   0  0  0  0  0  0  0  0  0  0  0  0
    0.0000    0.0000    0.0000 S   0  0  0  0  0  0  0  0  0  0  0  0
    0.0000    0.0000    0.0000 C   0  0  0  0  0  0  0  0  0  0  0  0
    0.0000    0.0000    0.0000 C   0  0  0  0  0  0  0  0  0  0  0  0
    0.0000    0.0000    0.0000 C   0  0  0  0  0  0  0  0  0  0  0  0
    0.0000    0.0000    0.0000 O   0  0  0  0  0  0  0  0  0  0  0  0
    0.0000    0.0000    0.0000 C   0  0  0  0  0  0  0  0  0  0  0  0
    0.0000    0.0000    0.0000 C   0  0  0  0  0  0  0  0  0  0  0  0
  1  2  1  0
  2  3  1  0
  3  4  2  0
  4  5  1  0
  5  6  2  0
  6  7  1  0
  7  8  1  0
  8  9  1  0
  9 10  1  0
 10 11  1  0
 10 12  1  0
 12 13  1  0
 13 14  1  0
 14 15  1  0
 15 16  1  0
 16 17  2  0
 17 18  1  0
 18 19  2  0
 19 20  1  0
 20 21  2  0
 15 22  1  0
 22 23  1  0
 23 24  1  0
 24 25  1  0
 25 26  1  0
 26 27  1  0
 27 28  1  0
 28 29  2  0
 29 30  1  0
 30 31  2  0
 31 32  1  0
 32 33  2  0
 33 34  1  0
 34 35  2  0
 35 36  1  0
 36 37  2  0
 37 38  1  0
 25 39  1  0
 39 40  1  0
 22 41  1  0
 41 42  2  0
  6 43  1  0
 43 44  2  0
 44  3  1  0
 41 13  1  0
 21 16  1  0
 40 22  1  0
 33 28  1  0
 38 34  1  0
M  END
>  <pIC50>  (802) 
6.96

>  <ChEMBL_ID>  (802) 
CHEMBL3394744

>  <document_journal>  (802) 
Bioorg. Med. Chem. Lett.

>  <bao_endpoint>  (802) 
BAO_0000190

>  <potential_duplicate>  (802) 
False

>  <uo_units>  (802) 
UO_0000065

>  <canonical_smiles>  (802) 
COc1ccc(CNC[C@@H](O)CN2CN(c3ccccc3)C4(CCN(CCc5ccccc5c6cccs6)CC4)C2=O)cc1

>  <parent_molecule_chembl_id>  (802) 
CHEMBL3394744

>  <assay_type>  (802) 
B

>  <src_id>  (802) 
1

>  <ligand_efficiency>  (802) 
{u'le': u'0.22', u'bei': u'11.39', u'sei': u'7.21', u'lle': u'1.69'}

>  <standard_flag>  (802) 
True

>  <molecule_chembl_id>  (802) 
CHEMBL3394744

>  <target_organism>  (802) 
Homo sapiens

>  <standard_units>  (802) 
nM

>  <record_id>  (802) 
2278528

>  <document_chembl_id>  (802) 
CHEMBL3393026

>  <bao_format>  (802) 
BAO_0000219

>  <data_validity_description>  (802) 
None

>  <activity_id>  (802) 
15147346

>  <standard_type>  (802) 
IC50

>  <target_chembl_id>  (802) 
CHEMBL233

>  <data_validity_comment>  (802) 
None

>  <published_value>  (802) 
0.11

>  <document_year>  (802) 
2015

>  <target_pref_name>  (802) 
Mu opioid receptor

>  <assay_chembl_id>  (802) 
CHEMBL3395052

>  <standard_relation>  (802) 
=

>  <assay_description>  (802) 
Displacement of [3H]DAMGO from human Mu opioid receptor expressed in HEK293 cells after 2 hrs by scintillation counting

>  <published_relation>  (802) 
=

>  <standard_value>  (802) 
110

>  <qudt_units>  (802) 
http://www.openphacts.org/units/Nanomolar

>  <target_tax_id>  (802) 
9606

>  <bao_label>  (802) 
cell-based format

>  <published_units>  (802) 
uM

>  <pchembl_value>  (802) 
6.96

>  <published_type>  (802) 
IC50

>  <activity_comment>  (802) 
None

$$$$

     RDKit          

 46 51  0  0  0  0  0  0  0  0999 V2000
    0.0000    0.0000    0.0000 C   0  0  0  0  0  0  0  0  0  0  0  0
    0.0000    0.0000    0.0000 C   0  0  0  0  0  0  0  0  0  0  0  0
    0.0000    0.0000    0.0000 C   0  0  0  0  0  0  0  0  0  0  0  0
    0.0000    0.0000    0.0000 C   0  0  0  0  0  0  0  0  0  0  0  0
    0.0000    0.0000    0.0000 N   0  0  0  0  0  0  0  0  0  0  0  0
    0.0000    0.0000    0.0000 C   0  0  0  0  0  0  0  0  0  0  0  0
    0.0000    0.0000    0.0000 C   0  0  0  0  0  0  0  0  0  0  0  0
    0.0000    0.0000    0.0000 O   0  0  0  0  0  0  0  0  0  0  0  0
    0.0000    0.0000    0.0000 C   0  0  0  0  0  0  0  0  0  0  0  0
    0.0000    0.0000    0.0000 N   0  0  0  0  0  0  0  0  0  0  0  0
    0.0000    0.0000    0.0000 C   0  0  0  0  0  0  0  0  0  0  0  0
    0.0000    0.0000    0.0000 N   0  0  0  0  0  0  0  0  0  0  0  0
    0.0000    0.0000    0.0000 C   0  0  0  0  0  0  0  0  0  0  0  0
    0.0000    0.0000    0.0000 C   0  0  0  0  0  0  0  0  0  0  0  0
    0.0000    0.0000    0.0000 C   0  0  0  0  0  0  0  0  0  0  0  0
    0.0000    0.0000    0.0000 C   0  0  0  0  0  0  0  0  0  0  0  0
    0.0000    0.0000    0.0000 C   0  0  0  0  0  0  0  0  0  0  0  0
    0.0000    0.0000    0.0000 C   0  0  0  0  0  0  0  0  0  0  0  0
    0.0000    0.0000    0.0000 C   0  0  0  0  0  0  0  0  0  0  0  0
    0.0000    0.0000    0.0000 C   0  0  0  0  0  0  0  0  0  0  0  0
    0.0000    0.0000    0.0000 C   0  0  0  0  0  0  0  0  0  0  0  0
    0.0000    0.0000    0.0000 N   0  0  0  0  0  0  0  0  0  0  0  0
    0.0000    0.0000    0.0000 C   0  0  0  0  0  0  0  0  0  0  0  0
    0.0000    0.0000    0.0000 C   0  0  0  0  0  0  0  0  0  0  0  0
    0.0000    0.0000    0.0000 C   0  0  0  0  0  0  0  0  0  0  0  0
    0.0000    0.0000    0.0000 C   0  0  0  0  0  0  0  0  0  0  0  0
    0.0000    0.0000    0.0000 C   0  0  0  0  0  0  0  0  0  0  0  0
    0.0000    0.0000    0.0000 C   0  0  0  0  0  0  0  0  0  0  0  0
    0.0000    0.0000    0.0000 C   0  0  0  0  0  0  0  0  0  0  0  0
    0.0000    0.0000    0.0000 C   0  0  0  0  0  0  0  0  0  0  0  0
    0.0000    0.0000    0.0000 C   0  0  0  0  0  0  0  0  0  0  0  0
    0.0000    0.0000    0.0000 C   0  0  0  0  0  0  0  0  0  0  0  0
    0.0000    0.0000    0.0000 C   0  0  0  0  0  0  0  0  0  0  0  0
    0.0000    0.0000    0.0000 C   0  0  0  0  0  0  0  0  0  0  0  0
    0.0000    0.0000    0.0000 S   0  0  0  0  0  0  0  0  0  0  0  0
    0.0000    0.0000    0.0000 C   0  0  0  0  0  0  0  0  0  0  0  0
    0.0000    0.0000    0.0000 C   0  0  0  0  0  0  0  0  0  0  0  0
    0.0000    0.0000    0.0000 C   0  0  0  0  0  0  0  0  0  0  0  0
    0.0000    0.0000    0.0000 O   0  0  0  0  0  0  0  0  0  0  0  0
    0.0000    0.0000    0.0000 C   0  0  0  0  0  0  0  0  0  0  0  0
    0.0000    0.0000    0.0000 C   0  0  0  0  0  0  0  0  0  0  0  0
    0.0000    0.0000    0.0000 C   0  0  0  0  0  0  0  0  0  0  0  0
    0.0000    0.0000    0.0000 C   0  0  0  0  0  0  0  0  0  0  0  0
    0.0000    0.0000    0.0000 C   0  0  0  0  0  0  0  0  0  0  0  0
    0.0000    0.0000    0.0000 C   0  0  0  0  0  0  0  0  0  0  0  0
    0.0000    0.0000    0.0000 C   0  0  0  0  0  0  0  0  0  0  0  0
  1  2  1  0
  2  3  1  0
  3  4  1  0
  4  5  1  0
  5  6  1  0
  6  7  1  0
  7  8  1  0
  7  9  1  0
  9 10  1  0
 10 11  1  0
 11 12  1  0
 12 13  1  0
 13 14  2  0
 14 15  1  0
 15 16  2  0
 16 17  1  0
 17 18  2  0
 12 19  1  0
 19 20  1  0
 20 21  1  0
 21 22  1  0
 22 23  1  0
 23 24  1  0
 24 25  1  0
 25 26  2  0
 26 27  1  0
 27 28  2  0
 28 29  1  0
 29 30  2  0
 30 31  1  0
 31 32  2  0
 32 33  1  0
 33 34  2  0
 34 35  1  0
 22 36  1  0
 36 37  1  0
 19 38  1  0
 38 39  2  0
  5 40  1  0
 40 41  1  0
 41 42  2  0
 42 43  1  0
 43 44  2  0
 44 45  1  0
 45 46  2  0
 38 10  1  0
 18 13  1  0
 37 19  1  0
 30 25  1  0
 35 31  1  0
 46 41  1  0
M  END
>  <pIC50>  (803) 
7.44

>  <ChEMBL_ID>  (803) 
CHEMBL3394745

>  <document_journal>  (803) 
Bioorg. Med. Chem. Lett.

>  <bao_endpoint>  (803) 
BAO_0000190

>  <potential_duplicate>  (803) 
False

>  <uo_units>  (803) 
UO_0000065

>  <canonical_smiles>  (803) 
CCCCN(C[C@H](O)CN1CN(c2ccccc2)C3(CCN(CCc4ccccc4c5cccs5)CC3)C1=O)Cc6ccccc6

>  <parent_molecule_chembl_id>  (803) 
CHEMBL3394745

>  <assay_type>  (803) 
B

>  <src_id>  (803) 
1

>  <ligand_efficiency>  (803) 
{u'le': u'0.22', u'bei': u'11.69', u'sei': u'9.48', u'lle': u'0.28'}

>  <standard_flag>  (803) 
True

>  <molecule_chembl_id>  (803) 
CHEMBL3394745

>  <target_organism>  (803) 
Homo sapiens

>  <standard_units>  (803) 
nM

>  <record_id>  (803) 
2278529

>  <document_chembl_id>  (803) 
CHEMBL3393026

>  <bao_format>  (803) 
BAO_0000219

>  <data_validity_description>  (803) 
None

>  <activity_id>  (803) 
15147347

>  <standard_type>  (803) 
IC50

>  <target_chembl_id>  (803) 
CHEMBL233

>  <data_validity_comment>  (803) 
None

>  <published_value>  (803) 
0.036

>  <document_year>  (803) 
2015

>  <target_pref_name>  (803) 
Mu opioid receptor

>  <assay_chembl_id>  (803) 
CHEMBL3395052

>  <standard_relation>  (803) 
=

>  <assay_description>  (803) 
Displacement of [3H]DAMGO from human Mu opioid receptor expressed in HEK293 cells after 2 hrs by scintillation counting

>  <published_relation>  (803) 
=

>  <standard_value>  (803) 
36

>  <qudt_units>  (803) 
http://www.openphacts.org/units/Nanomolar

>  <target_tax_id>  (803) 
9606

>  <bao_label>  (803) 
cell-based format

>  <published_units>  (803) 
uM

>  <pchembl_value>  (803) 
7.44

>  <published_type>  (803) 
IC50

>  <activity_comment>  (803) 
None

$$$$

     RDKit          

 46 51  0  0  0  0  0  0  0  0999 V2000
    0.0000    0.0000    0.0000 C   0  0  0  0  0  0  0  0  0  0  0  0
    0.0000    0.0000    0.0000 C   0  0  0  0  0  0  0  0  0  0  0  0
    0.0000    0.0000    0.0000 C   0  0  0  0  0  0  0  0  0  0  0  0
    0.0000    0.0000    0.0000 C   0  0  0  0  0  0  0  0  0  0  0  0
    0.0000    0.0000    0.0000 N   0  0  0  0  0  0  0  0  0  0  0  0
    0.0000    0.0000    0.0000 C   0  0  0  0  0  0  0  0  0  0  0  0
    0.0000    0.0000    0.0000 C   0  0  0  0  0  0  0  0  0  0  0  0
    0.0000    0.0000    0.0000 O   0  0  0  0  0  0  0  0  0  0  0  0
    0.0000    0.0000    0.0000 C   0  0  0  0  0  0  0  0  0  0  0  0
    0.0000    0.0000    0.0000 N   0  0  0  0  0  0  0  0  0  0  0  0
    0.0000    0.0000    0.0000 C   0  0  0  0  0  0  0  0  0  0  0  0
    0.0000    0.0000    0.0000 N   0  0  0  0  0  0  0  0  0  0  0  0
    0.0000    0.0000    0.0000 C   0  0  0  0  0  0  0  0  0  0  0  0
    0.0000    0.0000    0.0000 C   0  0  0  0  0  0  0  0  0  0  0  0
    0.0000    0.0000    0.0000 C   0  0  0  0  0  0  0  0  0  0  0  0
    0.0000    0.0000    0.0000 C   0  0  0  0  0  0  0  0  0  0  0  0
    0.0000    0.0000    0.0000 C   0  0  0  0  0  0  0  0  0  0  0  0
    0.0000    0.0000    0.0000 C   0  0  0  0  0  0  0  0  0  0  0  0
    0.0000    0.0000    0.0000 C   0  0  0  0  0  0  0  0  0  0  0  0
    0.0000    0.0000    0.0000 C   0  0  0  0  0  0  0  0  0  0  0  0
    0.0000    0.0000    0.0000 C   0  0  0  0  0  0  0  0  0  0  0  0
    0.0000    0.0000    0.0000 N   0  0  0  0  0  0  0  0  0  0  0  0
    0.0000    0.0000    0.0000 C   0  0  0  0  0  0  0  0  0  0  0  0
    0.0000    0.0000    0.0000 C   0  0  0  0  0  0  0  0  0  0  0  0
    0.0000    0.0000    0.0000 C   0  0  0  0  0  0  0  0  0  0  0  0
    0.0000    0.0000    0.0000 C   0  0  0  0  0  0  0  0  0  0  0  0
    0.0000    0.0000    0.0000 C   0  0  0  0  0  0  0  0  0  0  0  0
    0.0000    0.0000    0.0000 C   0  0  0  0  0  0  0  0  0  0  0  0
    0.0000    0.0000    0.0000 C   0  0  0  0  0  0  0  0  0  0  0  0
    0.0000    0.0000    0.0000 C   0  0  0  0  0  0  0  0  0  0  0  0
    0.0000    0.0000    0.0000 C   0  0  0  0  0  0  0  0  0  0  0  0
    0.0000    0.0000    0.0000 C   0  0  0  0  0  0  0  0  0  0  0  0
    0.0000    0.0000    0.0000 C   0  0  0  0  0  0  0  0  0  0  0  0
    0.0000    0.0000    0.0000 C   0  0  0  0  0  0  0  0  0  0  0  0
    0.0000    0.0000    0.0000 S   0  0  0  0  0  0  0  0  0  0  0  0
    0.0000    0.0000    0.0000 C   0  0  0  0  0  0  0  0  0  0  0  0
    0.0000    0.0000    0.0000 C   0  0  0  0  0  0  0  0  0  0  0  0
    0.0000    0.0000    0.0000 C   0  0  0  0  0  0  0  0  0  0  0  0
    0.0000    0.0000    0.0000 O   0  0  0  0  0  0  0  0  0  0  0  0
    0.0000    0.0000    0.0000 C   0  0  0  0  0  0  0  0  0  0  0  0
    0.0000    0.0000    0.0000 C   0  0  0  0  0  0  0  0  0  0  0  0
    0.0000    0.0000    0.0000 C   0  0  0  0  0  0  0  0  0  0  0  0
    0.0000    0.0000    0.0000 C   0  0  0  0  0  0  0  0  0  0  0  0
    0.0000    0.0000    0.0000 C   0  0  0  0  0  0  0  0  0  0  0  0
    0.0000    0.0000    0.0000 C   0  0  0  0  0  0  0  0  0  0  0  0
    0.0000    0.0000    0.0000 C   0  0  0  0  0  0  0  0  0  0  0  0
  1  2  1  0
  2  3  1  0
  3  4  1  0
  4  5  1  0
  5  6  1  0
  6  7  1  0
  7  8  1  0
  7  9  1  0
  9 10  1  0
 10 11  1  0
 11 12  1  0
 12 13  1  0
 13 14  2  0
 14 15  1  0
 15 16  2  0
 16 17  1  0
 17 18  2  0
 12 19  1  0
 19 20  1  0
 20 21  1  0
 21 22  1  0
 22 23  1  0
 23 24  1  0
 24 25  1  0
 25 26  2  0
 26 27  1  0
 27 28  2  0
 28 29  1  0
 29 30  2  0
 30 31  1  0
 31 32  2  0
 32 33  1  0
 33 34  2  0
 34 35  1  0
 22 36  1  0
 36 37  1  0
 19 38  1  0
 38 39  2  0
  5 40  1  0
 40 41  1  0
 41 42  2  0
 42 43  1  0
 43 44  2  0
 44 45  1  0
 45 46  2  0
 38 10  1  0
 18 13  1  0
 37 19  1  0
 30 25  1  0
 35 31  1  0
 46 41  1  0
M  END
>  <pIC50>  (804) 
7.33

>  <ChEMBL_ID>  (804) 
CHEMBL3394746

>  <document_journal>  (804) 
Bioorg. Med. Chem. Lett.

>  <bao_endpoint>  (804) 
BAO_0000190

>  <potential_duplicate>  (804) 
False

>  <uo_units>  (804) 
UO_0000065

>  <canonical_smiles>  (804) 
CCCCN(C[C@@H](O)CN1CN(c2ccccc2)C3(CCN(CCc4ccccc4c5cccs5)CC3)C1=O)Cc6ccccc6

>  <parent_molecule_chembl_id>  (804) 
CHEMBL3394746

>  <assay_type>  (804) 
B

>  <src_id>  (804) 
1

>  <ligand_efficiency>  (804) 
{u'le': u'0.22', u'bei': u'11.51', u'sei': u'9.33', u'lle': u'0.17'}

>  <standard_flag>  (804) 
True

>  <molecule_chembl_id>  (804) 
CHEMBL3394746

>  <target_organism>  (804) 
Homo sapiens

>  <standard_units>  (804) 
nM

>  <record_id>  (804) 
2278530

>  <document_chembl_id>  (804) 
CHEMBL3393026

>  <bao_format>  (804) 
BAO_0000219

>  <data_validity_description>  (804) 
None

>  <activity_id>  (804) 
15147348

>  <standard_type>  (804) 
IC50

>  <target_chembl_id>  (804) 
CHEMBL233

>  <data_validity_comment>  (804) 
None

>  <published_value>  (804) 
0.047

>  <document_year>  (804) 
2015

>  <target_pref_name>  (804) 
Mu opioid receptor

>  <assay_chembl_id>  (804) 
CHEMBL3395052

>  <standard_relation>  (804) 
=

>  <assay_description>  (804) 
Displacement of [3H]DAMGO from human Mu opioid receptor expressed in HEK293 cells after 2 hrs by scintillation counting

>  <published_relation>  (804) 
=

>  <standard_value>  (804) 
47

>  <qudt_units>  (804) 
http://www.openphacts.org/units/Nanomolar

>  <target_tax_id>  (804) 
9606

>  <bao_label>  (804) 
cell-based format

>  <published_units>  (804) 
uM

>  <pchembl_value>  (804) 
7.33

>  <published_type>  (804) 
IC50

>  <activity_comment>  (804) 
None

$$$$

     RDKit          

 41 46  0  0  0  0  0  0  0  0999 V2000
    0.0000    0.0000    0.0000 O   0  0  0  0  0  0  0  0  0  0  0  0
    0.0000    0.0000    0.0000 C   0  0  0  0  0  0  0  0  0  0  0  0
    0.0000    0.0000    0.0000 C   0  0  0  0  0  0  0  0  0  0  0  0
    0.0000    0.0000    0.0000 N   0  0  0  0  0  0  0  0  0  0  0  0
    0.0000    0.0000    0.0000 C   0  0  0  0  0  0  0  0  0  0  0  0
    0.0000    0.0000    0.0000 C   0  0  0  0  0  0  0  0  0  0  0  0
    0.0000    0.0000    0.0000 C   0  0  0  0  0  0  0  0  0  0  0  0
    0.0000    0.0000    0.0000 C   0  0  0  0  0  0  0  0  0  0  0  0
    0.0000    0.0000    0.0000 C   0  0  0  0  0  0  0  0  0  0  0  0
    0.0000    0.0000    0.0000 S   0  0  0  0  0  0  0  0  0  0  0  0
    0.0000    0.0000    0.0000 C   0  0  0  0  0  0  0  0  0  0  0  0
    0.0000    0.0000    0.0000 N   0  0  0  0  0  0  0  0  0  0  0  0
    0.0000    0.0000    0.0000 C   0  0  0  0  0  0  0  0  0  0  0  0
    0.0000    0.0000    0.0000 N   0  0  0  0  0  0  0  0  0  0  0  0
    0.0000    0.0000    0.0000 C   0  0  0  0  0  0  0  0  0  0  0  0
    0.0000    0.0000    0.0000 C   0  0  0  0  0  0  0  0  0  0  0  0
    0.0000    0.0000    0.0000 C   0  0  0  0  0  0  0  0  0  0  0  0
    0.0000    0.0000    0.0000 C   0  0  0  0  0  0  0  0  0  0  0  0
    0.0000    0.0000    0.0000 C   0  0  0  0  0  0  0  0  0  0  0  0
    0.0000    0.0000    0.0000 C   0  0  0  0  0  0  0  0  0  0  0  0
    0.0000    0.0000    0.0000 C   0  0  0  0  0  0  0  0  0  0  0  0
    0.0000    0.0000    0.0000 C   0  0  0  0  0  0  0  0  0  0  0  0
    0.0000    0.0000    0.0000 C   0  0  0  0  0  0  0  0  0  0  0  0
    0.0000    0.0000    0.0000 N   0  0  0  0  0  0  0  0  0  0  0  0
    0.0000    0.0000    0.0000 C   0  0  0  0  0  0  0  0  0  0  0  0
    0.0000    0.0000    0.0000 C   0  0  0  0  0  0  0  0  0  0  0  0
    0.0000    0.0000    0.0000 C   0  0  0  0  0  0  0  0  0  0  0  0
    0.0000    0.0000    0.0000 C   0  0  0  0  0  0  0  0  0  0  0  0
    0.0000    0.0000    0.0000 C   0  0  0  0  0  0  0  0  0  0  0  0
    0.0000    0.0000    0.0000 C   0  0  0  0  0  0  0  0  0  0  0  0
    0.0000    0.0000    0.0000 C   0  0  0  0  0  0  0  0  0  0  0  0
    0.0000    0.0000    0.0000 C   0  0  0  0  0  0  0  0  0  0  0  0
    0.0000    0.0000    0.0000 C   0  0  0  0  0  0  0  0  0  0  0  0
    0.0000    0.0000    0.0000 C   0  0  0  0  0  0  0  0  0  0  0  0
    0.0000    0.0000    0.0000 C   0  0  0  0  0  0  0  0  0  0  0  0
    0.0000    0.0000    0.0000 C   0  0  0  0  0  0  0  0  0  0  0  0
    0.0000    0.0000    0.0000 S   0  0  0  0  0  0  0  0  0  0  0  0
    0.0000    0.0000    0.0000 C   0  0  0  0  0  0  0  0  0  0  0  0
    0.0000    0.0000    0.0000 C   0  0  0  0  0  0  0  0  0  0  0  0
    0.0000    0.0000    0.0000 C   0  0  0  0  0  0  0  0  0  0  0  0
    0.0000    0.0000    0.0000 O   0  0  0  0  0  0  0  0  0  0  0  0
  1  2  1  0
  2  3  1  0
  3  4  1  0
  4  5  1  0
  5  6  1  0
  6  7  2  0
  7  8  1  0
  8  9  2  0
  9 10  1  0
  2 11  1  0
 11 12  1  0
 12 13  1  0
 13 14  1  0
 14 15  1  0
 15 16  2  0
 16 17  1  0
 17 18  2  0
 18 19  1  0
 19 20  2  0
 14 21  1  0
 21 22  1  0
 22 23  1  0
 23 24  1  0
 24 25  1  0
 25 26  1  0
 26 27  1  0
 27 28  2  0
 28 29  1  0
 29 30  2  0
 30 31  1  0
 31 32  2  0
 32 33  1  0
 33 34  2  0
 34 35  1  0
 35 36  2  0
 36 37  1  0
 24 38  1  0
 38 39  1  0
 21 40  1  0
 40 41  2  0
 10  6  1  0
 40 12  1  0
 20 15  1  0
 39 21  1  0
 32 27  1  0
 37 33  1  0
M  END
>  <pIC50>  (805) 
7.54

>  <ChEMBL_ID>  (805) 
CHEMBL3394747

>  <document_journal>  (805) 
Bioorg. Med. Chem. Lett.

>  <bao_endpoint>  (805) 
BAO_0000190

>  <potential_duplicate>  (805) 
False

>  <uo_units>  (805) 
UO_0000065

>  <canonical_smiles>  (805) 
O[C@@H](CNCc1cccs1)CN2CN(c3ccccc3)C4(CCN(CCc5ccccc5c6cccs6)CC4)C2=O

>  <parent_molecule_chembl_id>  (805) 
CHEMBL3394747

>  <assay_type>  (805) 
B

>  <src_id>  (805) 
1

>  <ligand_efficiency>  (805) 
{u'le': u'0.25', u'bei': u'12.85', u'sei': u'6.52', u'lle': u'2.51'}

>  <standard_flag>  (805) 
True

>  <molecule_chembl_id>  (805) 
CHEMBL3394747

>  <target_organism>  (805) 
Homo sapiens

>  <standard_units>  (805) 
nM

>  <record_id>  (805) 
2278531

>  <document_chembl_id>  (805) 
CHEMBL3393026

>  <bao_format>  (805) 
BAO_0000219

>  <data_validity_description>  (805) 
None

>  <activity_id>  (805) 
15147349

>  <standard_type>  (805) 
IC50

>  <target_chembl_id>  (805) 
CHEMBL233

>  <data_validity_comment>  (805) 
None

>  <published_value>  (805) 
0.029

>  <document_year>  (805) 
2015

>  <target_pref_name>  (805) 
Mu opioid receptor

>  <assay_chembl_id>  (805) 
CHEMBL3395052

>  <standard_relation>  (805) 
=

>  <assay_description>  (805) 
Displacement of [3H]DAMGO from human Mu opioid receptor expressed in HEK293 cells after 2 hrs by scintillation counting

>  <published_relation>  (805) 
=

>  <standard_value>  (805) 
29

>  <qudt_units>  (805) 
http://www.openphacts.org/units/Nanomolar

>  <target_tax_id>  (805) 
9606

>  <bao_label>  (805) 
cell-based format

>  <published_units>  (805) 
uM

>  <pchembl_value>  (805) 
7.54

>  <published_type>  (805) 
IC50

>  <activity_comment>  (805) 
None

$$$$

     RDKit          

 41 46  0  0  0  0  0  0  0  0999 V2000
    0.0000    0.0000    0.0000 O   0  0  0  0  0  0  0  0  0  0  0  0
    0.0000    0.0000    0.0000 C   0  0  0  0  0  0  0  0  0  0  0  0
    0.0000    0.0000    0.0000 C   0  0  0  0  0  0  0  0  0  0  0  0
    0.0000    0.0000    0.0000 N   0  0  0  0  0  0  0  0  0  0  0  0
    0.0000    0.0000    0.0000 C   0  0  0  0  0  0  0  0  0  0  0  0
    0.0000    0.0000    0.0000 C   0  0  0  0  0  0  0  0  0  0  0  0
    0.0000    0.0000    0.0000 C   0  0  0  0  0  0  0  0  0  0  0  0
    0.0000    0.0000    0.0000 C   0  0  0  0  0  0  0  0  0  0  0  0
    0.0000    0.0000    0.0000 C   0  0  0  0  0  0  0  0  0  0  0  0
    0.0000    0.0000    0.0000 S   0  0  0  0  0  0  0  0  0  0  0  0
    0.0000    0.0000    0.0000 C   0  0  0  0  0  0  0  0  0  0  0  0
    0.0000    0.0000    0.0000 N   0  0  0  0  0  0  0  0  0  0  0  0
    0.0000    0.0000    0.0000 C   0  0  0  0  0  0  0  0  0  0  0  0
    0.0000    0.0000    0.0000 N   0  0  0  0  0  0  0  0  0  0  0  0
    0.0000    0.0000    0.0000 C   0  0  0  0  0  0  0  0  0  0  0  0
    0.0000    0.0000    0.0000 C   0  0  0  0  0  0  0  0  0  0  0  0
    0.0000    0.0000    0.0000 C   0  0  0  0  0  0  0  0  0  0  0  0
    0.0000    0.0000    0.0000 C   0  0  0  0  0  0  0  0  0  0  0  0
    0.0000    0.0000    0.0000 C   0  0  0  0  0  0  0  0  0  0  0  0
    0.0000    0.0000    0.0000 C   0  0  0  0  0  0  0  0  0  0  0  0
    0.0000    0.0000    0.0000 C   0  0  0  0  0  0  0  0  0  0  0  0
    0.0000    0.0000    0.0000 C   0  0  0  0  0  0  0  0  0  0  0  0
    0.0000    0.0000    0.0000 C   0  0  0  0  0  0  0  0  0  0  0  0
    0.0000    0.0000    0.0000 N   0  0  0  0  0  0  0  0  0  0  0  0
    0.0000    0.0000    0.0000 C   0  0  0  0  0  0  0  0  0  0  0  0
    0.0000    0.0000    0.0000 C   0  0  0  0  0  0  0  0  0  0  0  0
    0.0000    0.0000    0.0000 C   0  0  0  0  0  0  0  0  0  0  0  0
    0.0000    0.0000    0.0000 C   0  0  0  0  0  0  0  0  0  0  0  0
    0.0000    0.0000    0.0000 C   0  0  0  0  0  0  0  0  0  0  0  0
    0.0000    0.0000    0.0000 C   0  0  0  0  0  0  0  0  0  0  0  0
    0.0000    0.0000    0.0000 C   0  0  0  0  0  0  0  0  0  0  0  0
    0.0000    0.0000    0.0000 C   0  0  0  0  0  0  0  0  0  0  0  0
    0.0000    0.0000    0.0000 C   0  0  0  0  0  0  0  0  0  0  0  0
    0.0000    0.0000    0.0000 C   0  0  0  0  0  0  0  0  0  0  0  0
    0.0000    0.0000    0.0000 C   0  0  0  0  0  0  0  0  0  0  0  0
    0.0000    0.0000    0.0000 C   0  0  0  0  0  0  0  0  0  0  0  0
    0.0000    0.0000    0.0000 S   0  0  0  0  0  0  0  0  0  0  0  0
    0.0000    0.0000    0.0000 C   0  0  0  0  0  0  0  0  0  0  0  0
    0.0000    0.0000    0.0000 C   0  0  0  0  0  0  0  0  0  0  0  0
    0.0000    0.0000    0.0000 C   0  0  0  0  0  0  0  0  0  0  0  0
    0.0000    0.0000    0.0000 O   0  0  0  0  0  0  0  0  0  0  0  0
  1  2  1  0
  2  3  1  0
  3  4  1  0
  4  5  1  0
  5  6  1  0
  6  7  2  0
  7  8  1  0
  8  9  2  0
  9 10  1  0
  2 11  1  0
 11 12  1  0
 12 13  1  0
 13 14  1  0
 14 15  1  0
 15 16  2  0
 16 17  1  0
 17 18  2  0
 18 19  1  0
 19 20  2  0
 14 21  1  0
 21 22  1  0
 22 23  1  0
 23 24  1  0
 24 25  1  0
 25 26  1  0
 26 27  1  0
 27 28  2  0
 28 29  1  0
 29 30  2  0
 30 31  1  0
 31 32  2  0
 32 33  1  0
 33 34  2  0
 34 35  1  0
 35 36  2  0
 36 37  1  0
 24 38  1  0
 38 39  1  0
 21 40  1  0
 40 41  2  0
 10  6  1  0
 40 12  1  0
 20 15  1  0
 39 21  1  0
 32 27  1  0
 37 33  1  0
M  END
>  <pIC50>  (806) 
7.1

>  <ChEMBL_ID>  (806) 
CHEMBL3394748

>  <document_journal>  (806) 
Bioorg. Med. Chem. Lett.

>  <bao_endpoint>  (806) 
BAO_0000190

>  <potential_duplicate>  (806) 
False

>  <uo_units>  (806) 
UO_0000065

>  <canonical_smiles>  (806) 
O[C@H](CNCc1cccs1)CN2CN(c3ccccc3)C4(CCN(CCc5ccccc5c6cccs6)CC4)C2=O

>  <parent_molecule_chembl_id>  (806) 
CHEMBL3394748

>  <assay_type>  (806) 
B

>  <src_id>  (806) 
1

>  <ligand_efficiency>  (806) 
{u'le': u'0.24', u'bei': u'12.09', u'sei': u'6.14', u'lle': u'2.07'}

>  <standard_flag>  (806) 
True

>  <molecule_chembl_id>  (806) 
CHEMBL3394748

>  <target_organism>  (806) 
Homo sapiens

>  <standard_units>  (806) 
nM

>  <record_id>  (806) 
2278532

>  <document_chembl_id>  (806) 
CHEMBL3393026

>  <bao_format>  (806) 
BAO_0000219

>  <data_validity_description>  (806) 
None

>  <activity_id>  (806) 
15147350

>  <standard_type>  (806) 
IC50

>  <target_chembl_id>  (806) 
CHEMBL233

>  <data_validity_comment>  (806) 
None

>  <published_value>  (806) 
0.08

>  <document_year>  (806) 
2015

>  <target_pref_name>  (806) 
Mu opioid receptor

>  <assay_chembl_id>  (806) 
CHEMBL3395052

>  <standard_relation>  (806) 
=

>  <assay_description>  (806) 
Displacement of [3H]DAMGO from human Mu opioid receptor expressed in HEK293 cells after 2 hrs by scintillation counting

>  <published_relation>  (806) 
=

>  <standard_value>  (806) 
80

>  <qudt_units>  (806) 
http://www.openphacts.org/units/Nanomolar

>  <target_tax_id>  (806) 
9606

>  <bao_label>  (806) 
cell-based format

>  <published_units>  (806) 
uM

>  <pchembl_value>  (806) 
7.1

>  <published_type>  (806) 
IC50

>  <activity_comment>  (806) 
None

$$$$

     RDKit          

 43 48  0  0  0  0  0  0  0  0999 V2000
    0.0000    0.0000    0.0000 C   0  0  0  0  0  0  0  0  0  0  0  0
    0.0000    0.0000    0.0000 C   0  0  0  0  0  0  0  0  0  0  0  0
    0.0000    0.0000    0.0000 C   0  0  0  0  0  0  0  0  0  0  0  0
    0.0000    0.0000    0.0000 C   0  0  0  0  0  0  0  0  0  0  0  0
    0.0000    0.0000    0.0000 C   0  0  0  0  0  0  0  0  0  0  0  0
    0.0000    0.0000    0.0000 C   0  0  0  0  0  0  0  0  0  0  0  0
    0.0000    0.0000    0.0000 C   0  0  0  0  0  0  0  0  0  0  0  0
    0.0000    0.0000    0.0000 C   0  0  0  0  0  0  0  0  0  0  0  0
    0.0000    0.0000    0.0000 N   0  0  0  0  0  0  0  0  0  0  0  0
    0.0000    0.0000    0.0000 C   0  0  0  0  0  0  0  0  0  0  0  0
    0.0000    0.0000    0.0000 C   0  0  0  0  0  0  0  0  0  0  0  0
    0.0000    0.0000    0.0000 O   0  0  0  0  0  0  0  0  0  0  0  0
    0.0000    0.0000    0.0000 C   0  0  0  0  0  0  0  0  0  0  0  0
    0.0000    0.0000    0.0000 N   0  0  0  0  0  0  0  0  0  0  0  0
    0.0000    0.0000    0.0000 C   0  0  0  0  0  0  0  0  0  0  0  0
    0.0000    0.0000    0.0000 N   0  0  0  0  0  0  0  0  0  0  0  0
    0.0000    0.0000    0.0000 C   0  0  0  0  0  0  0  0  0  0  0  0
    0.0000    0.0000    0.0000 C   0  0  0  0  0  0  0  0  0  0  0  0
    0.0000    0.0000    0.0000 C   0  0  0  0  0  0  0  0  0  0  0  0
    0.0000    0.0000    0.0000 C   0  0  0  0  0  0  0  0  0  0  0  0
    0.0000    0.0000    0.0000 C   0  0  0  0  0  0  0  0  0  0  0  0
    0.0000    0.0000    0.0000 C   0  0  0  0  0  0  0  0  0  0  0  0
    0.0000    0.0000    0.0000 C   0  0  0  0  0  0  0  0  0  0  0  0
    0.0000    0.0000    0.0000 C   0  0  0  0  0  0  0  0  0  0  0  0
    0.0000    0.0000    0.0000 C   0  0  0  0  0  0  0  0  0  0  0  0
    0.0000    0.0000    0.0000 N   0  0  0  0  0  0  0  0  0  0  0  0
    0.0000    0.0000    0.0000 C   0  0  0  0  0  0  0  0  0  0  0  0
    0.0000    0.0000    0.0000 C   0  0  0  0  0  0  0  0  0  0  0  0
    0.0000    0.0000    0.0000 C   0  0  0  0  0  0  0  0  0  0  0  0
    0.0000    0.0000    0.0000 C   0  0  0  0  0  0  0  0  0  0  0  0
    0.0000    0.0000    0.0000 C   0  0  0  0  0  0  0  0  0  0  0  0
    0.0000    0.0000    0.0000 C   0  0  0  0  0  0  0  0  0  0  0  0
    0.0000    0.0000    0.0000 C   0  0  0  0  0  0  0  0  0  0  0  0
    0.0000    0.0000    0.0000 C   0  0  0  0  0  0  0  0  0  0  0  0
    0.0000    0.0000    0.0000 C   0  0  0  0  0  0  0  0  0  0  0  0
    0.0000    0.0000    0.0000 C   0  0  0  0  0  0  0  0  0  0  0  0
    0.0000    0.0000    0.0000 C   0  0  0  0  0  0  0  0  0  0  0  0
    0.0000    0.0000    0.0000 C   0  0  0  0  0  0  0  0  0  0  0  0
    0.0000    0.0000    0.0000 S   0  0  0  0  0  0  0  0  0  0  0  0
    0.0000    0.0000    0.0000 C   0  0  0  0  0  0  0  0  0  0  0  0
    0.0000    0.0000    0.0000 C   0  0  0  0  0  0  0  0  0  0  0  0
    0.0000    0.0000    0.0000 C   0  0  0  0  0  0  0  0  0  0  0  0
    0.0000    0.0000    0.0000 O   0  0  0  0  0  0  0  0  0  0  0  0
  1  2  1  0
  2  3  2  0
  3  4  1  0
  4  5  2  0
  5  6  1  0
  6  7  2  0
  7  8  1  0
  8  9  1  0
  9 10  1  0
 10 11  1  0
 11 12  1  0
 11 13  1  0
 13 14  1  0
 14 15  1  0
 15 16  1  0
 16 17  1  0
 17 18  2  0
 18 19  1  0
 19 20  2  0
 20 21  1  0
 21 22  2  0
 16 23  1  0
 23 24  1  0
 24 25  1  0
 25 26  1  0
 26 27  1  0
 27 28  1  0
 28 29  1  0
 29 30  2  0
 30 31  1  0
 31 32  2  0
 32 33  1  0
 33 34  2  0
 34 35  1  0
 35 36  2  0
 36 37  1  0
 37 38  2  0
 38 39  1  0
 26 40  1  0
 40 41  1  0
 23 42  1  0
 42 43  2  0
  7  2  1  0
 42 14  1  0
 22 17  1  0
 41 23  1  0
 34 29  1  0
 39 35  1  0
M  END
>  <pIC50>  (807) 
7.16

>  <ChEMBL_ID>  (807) 
CHEMBL3394749

>  <document_journal>  (807) 
Bioorg. Med. Chem. Lett.

>  <bao_endpoint>  (807) 
BAO_0000190

>  <potential_duplicate>  (807) 
False

>  <uo_units>  (807) 
UO_0000065

>  <canonical_smiles>  (807) 
Cc1ccccc1CNC[C@H](O)CN2CN(c3ccccc3)C4(CCN(CCc5ccccc5c6cccs6)CC4)C2=O

>  <parent_molecule_chembl_id>  (807) 
CHEMBL3394749

>  <assay_type>  (807) 
B

>  <src_id>  (807) 
1

>  <ligand_efficiency>  (807) 
{u'le': u'0.23', u'bei': u'12.04', u'sei': u'8.2', u'lle': u'1.38'}

>  <standard_flag>  (807) 
True

>  <molecule_chembl_id>  (807) 
CHEMBL3394749

>  <target_organism>  (807) 
Homo sapiens

>  <standard_units>  (807) 
nM

>  <record_id>  (807) 
2278533

>  <document_chembl_id>  (807) 
CHEMBL3393026

>  <bao_format>  (807) 
BAO_0000219

>  <data_validity_description>  (807) 
None

>  <activity_id>  (807) 
15147351

>  <standard_type>  (807) 
IC50

>  <target_chembl_id>  (807) 
CHEMBL233

>  <data_validity_comment>  (807) 
None

>  <published_value>  (807) 
0.069

>  <document_year>  (807) 
2015

>  <target_pref_name>  (807) 
Mu opioid receptor

>  <assay_chembl_id>  (807) 
CHEMBL3395052

>  <standard_relation>  (807) 
=

>  <assay_description>  (807) 
Displacement of [3H]DAMGO from human Mu opioid receptor expressed in HEK293 cells after 2 hrs by scintillation counting

>  <published_relation>  (807) 
=

>  <standard_value>  (807) 
69

>  <qudt_units>  (807) 
http://www.openphacts.org/units/Nanomolar

>  <target_tax_id>  (807) 
9606

>  <bao_label>  (807) 
cell-based format

>  <published_units>  (807) 
uM

>  <pchembl_value>  (807) 
7.16

>  <published_type>  (807) 
IC50

>  <activity_comment>  (807) 
None

$$$$

     RDKit          

 43 48  0  0  0  0  0  0  0  0999 V2000
    0.0000    0.0000    0.0000 C   0  0  0  0  0  0  0  0  0  0  0  0
    0.0000    0.0000    0.0000 C   0  0  0  0  0  0  0  0  0  0  0  0
    0.0000    0.0000    0.0000 C   0  0  0  0  0  0  0  0  0  0  0  0
    0.0000    0.0000    0.0000 C   0  0  0  0  0  0  0  0  0  0  0  0
    0.0000    0.0000    0.0000 C   0  0  0  0  0  0  0  0  0  0  0  0
    0.0000    0.0000    0.0000 C   0  0  0  0  0  0  0  0  0  0  0  0
    0.0000    0.0000    0.0000 C   0  0  0  0  0  0  0  0  0  0  0  0
    0.0000    0.0000    0.0000 C   0  0  0  0  0  0  0  0  0  0  0  0
    0.0000    0.0000    0.0000 N   0  0  0  0  0  0  0  0  0  0  0  0
    0.0000    0.0000    0.0000 C   0  0  0  0  0  0  0  0  0  0  0  0
    0.0000    0.0000    0.0000 C   0  0  0  0  0  0  0  0  0  0  0  0
    0.0000    0.0000    0.0000 O   0  0  0  0  0  0  0  0  0  0  0  0
    0.0000    0.0000    0.0000 C   0  0  0  0  0  0  0  0  0  0  0  0
    0.0000    0.0000    0.0000 N   0  0  0  0  0  0  0  0  0  0  0  0
    0.0000    0.0000    0.0000 C   0  0  0  0  0  0  0  0  0  0  0  0
    0.0000    0.0000    0.0000 N   0  0  0  0  0  0  0  0  0  0  0  0
    0.0000    0.0000    0.0000 C   0  0  0  0  0  0  0  0  0  0  0  0
    0.0000    0.0000    0.0000 C   0  0  0  0  0  0  0  0  0  0  0  0
    0.0000    0.0000    0.0000 C   0  0  0  0  0  0  0  0  0  0  0  0
    0.0000    0.0000    0.0000 C   0  0  0  0  0  0  0  0  0  0  0  0
    0.0000    0.0000    0.0000 C   0  0  0  0  0  0  0  0  0  0  0  0
    0.0000    0.0000    0.0000 C   0  0  0  0  0  0  0  0  0  0  0  0
    0.0000    0.0000    0.0000 C   0  0  0  0  0  0  0  0  0  0  0  0
    0.0000    0.0000    0.0000 C   0  0  0  0  0  0  0  0  0  0  0  0
    0.0000    0.0000    0.0000 C   0  0  0  0  0  0  0  0  0  0  0  0
    0.0000    0.0000    0.0000 N   0  0  0  0  0  0  0  0  0  0  0  0
    0.0000    0.0000    0.0000 C   0  0  0  0  0  0  0  0  0  0  0  0
    0.0000    0.0000    0.0000 C   0  0  0  0  0  0  0  0  0  0  0  0
    0.0000    0.0000    0.0000 C   0  0  0  0  0  0  0  0  0  0  0  0
    0.0000    0.0000    0.0000 C   0  0  0  0  0  0  0  0  0  0  0  0
    0.0000    0.0000    0.0000 C   0  0  0  0  0  0  0  0  0  0  0  0
    0.0000    0.0000    0.0000 C   0  0  0  0  0  0  0  0  0  0  0  0
    0.0000    0.0000    0.0000 C   0  0  0  0  0  0  0  0  0  0  0  0
    0.0000    0.0000    0.0000 C   0  0  0  0  0  0  0  0  0  0  0  0
    0.0000    0.0000    0.0000 C   0  0  0  0  0  0  0  0  0  0  0  0
    0.0000    0.0000    0.0000 C   0  0  0  0  0  0  0  0  0  0  0  0
    0.0000    0.0000    0.0000 C   0  0  0  0  0  0  0  0  0  0  0  0
    0.0000    0.0000    0.0000 C   0  0  0  0  0  0  0  0  0  0  0  0
    0.0000    0.0000    0.0000 S   0  0  0  0  0  0  0  0  0  0  0  0
    0.0000    0.0000    0.0000 C   0  0  0  0  0  0  0  0  0  0  0  0
    0.0000    0.0000    0.0000 C   0  0  0  0  0  0  0  0  0  0  0  0
    0.0000    0.0000    0.0000 C   0  0  0  0  0  0  0  0  0  0  0  0
    0.0000    0.0000    0.0000 O   0  0  0  0  0  0  0  0  0  0  0  0
  1  2  1  0
  2  3  2  0
  3  4  1  0
  4  5  2  0
  5  6  1  0
  6  7  2  0
  7  8  1  0
  8  9  1  0
  9 10  1  0
 10 11  1  0
 11 12  1  0
 11 13  1  0
 13 14  1  0
 14 15  1  0
 15 16  1  0
 16 17  1  0
 17 18  2  0
 18 19  1  0
 19 20  2  0
 20 21  1  0
 21 22  2  0
 16 23  1  0
 23 24  1  0
 24 25  1  0
 25 26  1  0
 26 27  1  0
 27 28  1  0
 28 29  1  0
 29 30  2  0
 30 31  1  0
 31 32  2  0
 32 33  1  0
 33 34  2  0
 34 35  1  0
 35 36  2  0
 36 37  1  0
 37 38  2  0
 38 39  1  0
 26 40  1  0
 40 41  1  0
 23 42  1  0
 42 43  2  0
  7  2  1  0
 42 14  1  0
 22 17  1  0
 41 23  1  0
 34 29  1  0
 39 35  1  0
M  END
>  <pIC50>  (808) 
6.99

>  <ChEMBL_ID>  (808) 
CHEMBL3394750

>  <document_journal>  (808) 
Bioorg. Med. Chem. Lett.

>  <bao_endpoint>  (808) 
BAO_0000190

>  <potential_duplicate>  (808) 
False

>  <uo_units>  (808) 
UO_0000065

>  <canonical_smiles>  (808) 
Cc1ccccc1CNC[C@@H](O)CN2CN(c3ccccc3)C4(CCN(CCc5ccccc5c6cccs6)CC4)C2=O

>  <parent_molecule_chembl_id>  (808) 
CHEMBL3394750

>  <assay_type>  (808) 
B

>  <src_id>  (808) 
1

>  <ligand_efficiency>  (808) 
{u'le': u'0.22', u'bei': u'11.75', u'sei': u'8', u'lle': u'1.21'}

>  <standard_flag>  (808) 
True

>  <molecule_chembl_id>  (808) 
CHEMBL3394750

>  <target_organism>  (808) 
Homo sapiens

>  <standard_units>  (808) 
nM

>  <record_id>  (808) 
2278534

>  <document_chembl_id>  (808) 
CHEMBL3393026

>  <bao_format>  (808) 
BAO_0000219

>  <data_validity_description>  (808) 
None

>  <activity_id>  (808) 
15147352

>  <standard_type>  (808) 
IC50

>  <target_chembl_id>  (808) 
CHEMBL233

>  <data_validity_comment>  (808) 
None

>  <published_value>  (808) 
0.103

>  <document_year>  (808) 
2015

>  <target_pref_name>  (808) 
Mu opioid receptor

>  <assay_chembl_id>  (808) 
CHEMBL3395052

>  <standard_relation>  (808) 
=

>  <assay_description>  (808) 
Displacement of [3H]DAMGO from human Mu opioid receptor expressed in HEK293 cells after 2 hrs by scintillation counting

>  <published_relation>  (808) 
=

>  <standard_value>  (808) 
103

>  <qudt_units>  (808) 
http://www.openphacts.org/units/Nanomolar

>  <target_tax_id>  (808) 
9606

>  <bao_label>  (808) 
cell-based format

>  <published_units>  (808) 
uM

>  <pchembl_value>  (808) 
6.99

>  <published_type>  (808) 
IC50

>  <activity_comment>  (808) 
None

$$$$

     RDKit          

 47 52  0  0  0  0  0  0  0  0999 V2000
    0.0000    0.0000    0.0000 C   0  0  0  0  0  0  0  0  0  0  0  0
    0.0000    0.0000    0.0000 O   0  0  0  0  0  0  0  0  0  0  0  0
    0.0000    0.0000    0.0000 C   0  0  0  0  0  0  0  0  0  0  0  0
    0.0000    0.0000    0.0000 C   0  0  0  0  0  0  0  0  0  0  0  0
    0.0000    0.0000    0.0000 C   0  0  0  0  0  0  0  0  0  0  0  0
    0.0000    0.0000    0.0000 C   0  0  0  0  0  0  0  0  0  0  0  0
    0.0000    0.0000    0.0000 C   0  0  0  0  0  0  0  0  0  0  0  0
    0.0000    0.0000    0.0000 C   0  0  0  0  0  0  0  0  0  0  0  0
    0.0000    0.0000    0.0000 N   0  0  0  0  0  0  0  0  0  0  0  0
    0.0000    0.0000    0.0000 C   0  0  0  0  0  0  0  0  0  0  0  0
    0.0000    0.0000    0.0000 C   0  0  0  0  0  0  0  0  0  0  0  0
    0.0000    0.0000    0.0000 O   0  0  0  0  0  0  0  0  0  0  0  0
    0.0000    0.0000    0.0000 C   0  0  0  0  0  0  0  0  0  0  0  0
    0.0000    0.0000    0.0000 N   0  0  0  0  0  0  0  0  0  0  0  0
    0.0000    0.0000    0.0000 C   0  0  0  0  0  0  0  0  0  0  0  0
    0.0000    0.0000    0.0000 N   0  0  0  0  0  0  0  0  0  0  0  0
    0.0000    0.0000    0.0000 C   0  0  0  0  0  0  0  0  0  0  0  0
    0.0000    0.0000    0.0000 C   0  0  0  0  0  0  0  0  0  0  0  0
    0.0000    0.0000    0.0000 C   0  0  0  0  0  0  0  0  0  0  0  0
    0.0000    0.0000    0.0000 C   0  0  0  0  0  0  0  0  0  0  0  0
    0.0000    0.0000    0.0000 C   0  0  0  0  0  0  0  0  0  0  0  0
    0.0000    0.0000    0.0000 C   0  0  0  0  0  0  0  0  0  0  0  0
    0.0000    0.0000    0.0000 C   0  0  0  0  0  0  0  0  0  0  0  0
    0.0000    0.0000    0.0000 C   0  0  0  0  0  0  0  0  0  0  0  0
    0.0000    0.0000    0.0000 C   0  0  0  0  0  0  0  0  0  0  0  0
    0.0000    0.0000    0.0000 N   0  0  0  0  0  0  0  0  0  0  0  0
    0.0000    0.0000    0.0000 C   0  0  0  0  0  0  0  0  0  0  0  0
    0.0000    0.0000    0.0000 C   0  0  0  0  0  0  0  0  0  0  0  0
    0.0000    0.0000    0.0000 C   0  0  0  0  0  0  0  0  0  0  0  0
    0.0000    0.0000    0.0000 C   0  0  0  0  0  0  0  0  0  0  0  0
    0.0000    0.0000    0.0000 C   0  0  0  0  0  0  0  0  0  0  0  0
    0.0000    0.0000    0.0000 C   0  0  0  0  0  0  0  0  0  0  0  0
    0.0000    0.0000    0.0000 C   0  0  0  0  0  0  0  0  0  0  0  0
    0.0000    0.0000    0.0000 C   0  0  0  0  0  0  0  0  0  0  0  0
    0.0000    0.0000    0.0000 C   0  0  0  0  0  0  0  0  0  0  0  0
    0.0000    0.0000    0.0000 C   0  0  0  0  0  0  0  0  0  0  0  0
    0.0000    0.0000    0.0000 C   0  0  0  0  0  0  0  0  0  0  0  0
    0.0000    0.0000    0.0000 C   0  0  0  0  0  0  0  0  0  0  0  0
    0.0000    0.0000    0.0000 S   0  0  0  0  0  0  0  0  0  0  0  0
    0.0000    0.0000    0.0000 C   0  0  0  0  0  0  0  0  0  0  0  0
    0.0000    0.0000    0.0000 C   0  0  0  0  0  0  0  0  0  0  0  0
    0.0000    0.0000    0.0000 C   0  0  0  0  0  0  0  0  0  0  0  0
    0.0000    0.0000    0.0000 O   0  0  0  0  0  0  0  0  0  0  0  0
    0.0000    0.0000    0.0000 C   0  0  0  0  0  0  0  0  0  0  0  0
    0.0000    0.0000    0.0000 C   0  0  0  0  0  0  0  0  0  0  0  0
    0.0000    0.0000    0.0000 O   0  0  0  0  0  0  0  0  0  0  0  0
    0.0000    0.0000    0.0000 C   0  0  0  0  0  0  0  0  0  0  0  0
  1  2  1  0
  2  3  1  0
  3  4  2  0
  4  5  1  0
  5  6  2  0
  6  7  1  0
  7  8  1  0
  8  9  1  0
  9 10  1  0
 10 11  1  0
 11 12  1  0
 11 13  1  0
 13 14  1  0
 14 15  1  0
 15 16  1  0
 16 17  1  0
 17 18  2  0
 18 19  1  0
 19 20  2  0
 20 21  1  0
 21 22  2  0
 16 23  1  0
 23 24  1  0
 24 25  1  0
 25 26  1  0
 26 27  1  0
 27 28  1  0
 28 29  1  0
 29 30  2  0
 30 31  1  0
 31 32  2  0
 32 33  1  0
 33 34  2  0
 34 35  1  0
 35 36  2  0
 36 37  1  0
 37 38  2  0
 38 39  1  0
 26 40  1  0
 40 41  1  0
 23 42  1  0
 42 43  2  0
  6 44  1  0
 44 45  2  0
 45 46  1  0
 46 47  1  0
 45  3  1  0
 42 14  1  0
 22 17  1  0
 41 23  1  0
 34 29  1  0
 39 35  1  0
M  END
>  <pIC50>  (809) 
7.1

>  <ChEMBL_ID>  (809) 
CHEMBL3394751

>  <document_journal>  (809) 
Bioorg. Med. Chem. Lett.

>  <bao_endpoint>  (809) 
BAO_0000190

>  <potential_duplicate>  (809) 
False

>  <uo_units>  (809) 
UO_0000065

>  <canonical_smiles>  (809) 
COc1ccc(CCNC[C@@H](O)CN2CN(c3ccccc3)C4(CCN(CCc5ccccc5c6cccs6)CC4)C2=O)cc1OC

>  <parent_molecule_chembl_id>  (809) 
CHEMBL3394751

>  <assay_type>  (809) 
B

>  <src_id>  (809) 
1

>  <ligand_efficiency>  (809) 
{u'le': u'0.21', u'bei': u'10.85', u'sei': u'6.72', u'lle': u'1.52'}

>  <standard_flag>  (809) 
True

>  <molecule_chembl_id>  (809) 
CHEMBL3394751

>  <target_organism>  (809) 
Homo sapiens

>  <standard_units>  (809) 
nM

>  <record_id>  (809) 
2278535

>  <document_chembl_id>  (809) 
CHEMBL3393026

>  <bao_format>  (809) 
BAO_0000219

>  <data_validity_description>  (809) 
None

>  <activity_id>  (809) 
15147353

>  <standard_type>  (809) 
IC50

>  <target_chembl_id>  (809) 
CHEMBL233

>  <data_validity_comment>  (809) 
None

>  <published_value>  (809) 
0.079

>  <document_year>  (809) 
2015

>  <target_pref_name>  (809) 
Mu opioid receptor

>  <assay_chembl_id>  (809) 
CHEMBL3395052

>  <standard_relation>  (809) 
=

>  <assay_description>  (809) 
Displacement of [3H]DAMGO from human Mu opioid receptor expressed in HEK293 cells after 2 hrs by scintillation counting

>  <published_relation>  (809) 
=

>  <standard_value>  (809) 
79

>  <qudt_units>  (809) 
http://www.openphacts.org/units/Nanomolar

>  <target_tax_id>  (809) 
9606

>  <bao_label>  (809) 
cell-based format

>  <published_units>  (809) 
uM

>  <pchembl_value>  (809) 
7.1

>  <published_type>  (809) 
IC50

>  <activity_comment>  (809) 
None

$$$$

     RDKit          

 39 43  0  0  0  0  0  0  0  0999 V2000
    0.0000    0.0000    0.0000 C   0  0  0  0  0  0  0  0  0  0  0  0
    0.0000    0.0000    0.0000 C   0  0  0  0  0  0  0  0  0  0  0  0
    0.0000    0.0000    0.0000 C   0  0  0  0  0  0  0  0  0  0  0  0
    0.0000    0.0000    0.0000 C   0  0  0  0  0  0  0  0  0  0  0  0
    0.0000    0.0000    0.0000 N   0  0  0  0  0  0  0  0  0  0  0  0
    0.0000    0.0000    0.0000 C   0  0  0  0  0  0  0  0  0  0  0  0
    0.0000    0.0000    0.0000 C   0  0  0  0  0  0  0  0  0  0  0  0
    0.0000    0.0000    0.0000 O   0  0  0  0  0  0  0  0  0  0  0  0
    0.0000    0.0000    0.0000 C   0  0  0  0  0  0  0  0  0  0  0  0
    0.0000    0.0000    0.0000 N   0  0  0  0  0  0  0  0  0  0  0  0
    0.0000    0.0000    0.0000 C   0  0  0  0  0  0  0  0  0  0  0  0
    0.0000    0.0000    0.0000 N   0  0  0  0  0  0  0  0  0  0  0  0
    0.0000    0.0000    0.0000 C   0  0  0  0  0  0  0  0  0  0  0  0
    0.0000    0.0000    0.0000 C   0  0  0  0  0  0  0  0  0  0  0  0
    0.0000    0.0000    0.0000 C   0  0  0  0  0  0  0  0  0  0  0  0
    0.0000    0.0000    0.0000 C   0  0  0  0  0  0  0  0  0  0  0  0
    0.0000    0.0000    0.0000 C   0  0  0  0  0  0  0  0  0  0  0  0
    0.0000    0.0000    0.0000 C   0  0  0  0  0  0  0  0  0  0  0  0
    0.0000    0.0000    0.0000 C   0  0  0  0  0  0  0  0  0  0  0  0
    0.0000    0.0000    0.0000 C   0  0  0  0  0  0  0  0  0  0  0  0
    0.0000    0.0000    0.0000 C   0  0  0  0  0  0  0  0  0  0  0  0
    0.0000    0.0000    0.0000 N   0  0  0  0  0  0  0  0  0  0  0  0
    0.0000    0.0000    0.0000 C   0  0  0  0  0  0  0  0  0  0  0  0
    0.0000    0.0000    0.0000 C   0  0  0  0  0  0  0  0  0  0  0  0
    0.0000    0.0000    0.0000 C   0  0  0  0  0  0  0  0  0  0  0  0
    0.0000    0.0000    0.0000 C   0  0  0  0  0  0  0  0  0  0  0  0
    0.0000    0.0000    0.0000 C   0  0  0  0  0  0  0  0  0  0  0  0
    0.0000    0.0000    0.0000 C   0  0  0  0  0  0  0  0  0  0  0  0
    0.0000    0.0000    0.0000 C   0  0  0  0  0  0  0  0  0  0  0  0
    0.0000    0.0000    0.0000 C   0  0  0  0  0  0  0  0  0  0  0  0
    0.0000    0.0000    0.0000 C   0  0  0  0  0  0  0  0  0  0  0  0
    0.0000    0.0000    0.0000 C   0  0  0  0  0  0  0  0  0  0  0  0
    0.0000    0.0000    0.0000 C   0  0  0  0  0  0  0  0  0  0  0  0
    0.0000    0.0000    0.0000 C   0  0  0  0  0  0  0  0  0  0  0  0
    0.0000    0.0000    0.0000 S   0  0  0  0  0  0  0  0  0  0  0  0
    0.0000    0.0000    0.0000 C   0  0  0  0  0  0  0  0  0  0  0  0
    0.0000    0.0000    0.0000 C   0  0  0  0  0  0  0  0  0  0  0  0
    0.0000    0.0000    0.0000 C   0  0  0  0  0  0  0  0  0  0  0  0
    0.0000    0.0000    0.0000 O   0  0  0  0  0  0  0  0  0  0  0  0
  1  2  1  0
  2  3  1  0
  2  4  1  0
  2  5  1  0
  5  6  1  0
  6  7  1  0
  7  8  1  0
  7  9  1  0
  9 10  1  0
 10 11  1  0
 11 12  1  0
 12 13  1  0
 13 14  2  0
 14 15  1  0
 15 16  2  0
 16 17  1  0
 17 18  2  0
 12 19  1  0
 19 20  1  0
 20 21  1  0
 21 22  1  0
 22 23  1  0
 23 24  1  0
 24 25  1  0
 25 26  2  0
 26 27  1  0
 27 28  2  0
 28 29  1  0
 29 30  2  0
 30 31  1  0
 31 32  2  0
 32 33  1  0
 33 34  2  0
 34 35  1  0
 22 36  1  0
 36 37  1  0
 19 38  1  0
 38 39  2  0
 38 10  1  0
 18 13  1  0
 37 19  1  0
 30 25  1  0
 35 31  1  0
M  END
>  <pIC50>  (810) 
7.24

>  <ChEMBL_ID>  (810) 
CHEMBL3394752

>  <document_journal>  (810) 
Bioorg. Med. Chem. Lett.

>  <bao_endpoint>  (810) 
BAO_0000190

>  <potential_duplicate>  (810) 
False

>  <uo_units>  (810) 
UO_0000065

>  <canonical_smiles>  (810) 
CC(C)(C)NC[C@@H](O)CN1CN(c2ccccc2)C3(CCN(CCc4ccccc4c5cccs5)CC3)C1=O

>  <parent_molecule_chembl_id>  (810) 
CHEMBL3394752

>  <assay_type>  (810) 
B

>  <src_id>  (810) 
1

>  <ligand_efficiency>  (810) 
{u'le': u'0.25', u'bei': u'13.25', u'sei': u'8.3', u'lle': u'2.6'}

>  <standard_flag>  (810) 
True

>  <molecule_chembl_id>  (810) 
CHEMBL3394752

>  <target_organism>  (810) 
Homo sapiens

>  <standard_units>  (810) 
nM

>  <record_id>  (810) 
2278536

>  <document_chembl_id>  (810) 
CHEMBL3393026

>  <bao_format>  (810) 
BAO_0000219

>  <data_validity_description>  (810) 
None

>  <activity_id>  (810) 
15147354

>  <standard_type>  (810) 
IC50

>  <target_chembl_id>  (810) 
CHEMBL233

>  <data_validity_comment>  (810) 
None

>  <published_value>  (810) 
0.057

>  <document_year>  (810) 
2015

>  <target_pref_name>  (810) 
Mu opioid receptor

>  <assay_chembl_id>  (810) 
CHEMBL3395052

>  <standard_relation>  (810) 
=

>  <assay_description>  (810) 
Displacement of [3H]DAMGO from human Mu opioid receptor expressed in HEK293 cells after 2 hrs by scintillation counting

>  <published_relation>  (810) 
=

>  <standard_value>  (810) 
57

>  <qudt_units>  (810) 
http://www.openphacts.org/units/Nanomolar

>  <target_tax_id>  (810) 
9606

>  <bao_label>  (810) 
cell-based format

>  <published_units>  (810) 
uM

>  <pchembl_value>  (810) 
7.24

>  <published_type>  (810) 
IC50

>  <activity_comment>  (810) 
None

$$$$

     RDKit          

 44 48  0  0  0  0  0  0  0  0999 V2000
    0.0000    0.0000    0.0000 C   0  0  0  0  0  0  0  0  0  0  0  0
    0.0000    0.0000    0.0000 O   0  0  0  0  0  0  0  0  0  0  0  0
    0.0000    0.0000    0.0000 C   0  0  0  0  0  0  0  0  0  0  0  0
    0.0000    0.0000    0.0000 C   0  0  0  0  0  0  0  0  0  0  0  0
    0.0000    0.0000    0.0000 C   0  0  0  0  0  0  0  0  0  0  0  0
    0.0000    0.0000    0.0000 C   0  0  0  0  0  0  0  0  0  0  0  0
    0.0000    0.0000    0.0000 C   0  0  0  0  0  0  0  0  0  0  0  0
    0.0000    0.0000    0.0000 C   0  0  0  0  0  0  0  0  0  0  0  0
    0.0000    0.0000    0.0000 N   0  0  0  0  0  0  0  0  0  0  0  0
    0.0000    0.0000    0.0000 C   0  0  0  0  0  0  0  0  0  0  0  0
    0.0000    0.0000    0.0000 C   0  0  0  0  0  0  0  0  0  0  0  0
    0.0000    0.0000    0.0000 O   0  0  0  0  0  0  0  0  0  0  0  0
    0.0000    0.0000    0.0000 C   0  0  0  0  0  0  0  0  0  0  0  0
    0.0000    0.0000    0.0000 N   0  0  0  0  0  0  0  0  0  0  0  0
    0.0000    0.0000    0.0000 C   0  0  0  0  0  0  0  0  0  0  0  0
    0.0000    0.0000    0.0000 N   0  0  0  0  0  0  0  0  0  0  0  0
    0.0000    0.0000    0.0000 C   0  0  0  0  0  0  0  0  0  0  0  0
    0.0000    0.0000    0.0000 C   0  0  0  0  0  0  0  0  0  0  0  0
    0.0000    0.0000    0.0000 C   0  0  0  0  0  0  0  0  0  0  0  0
    0.0000    0.0000    0.0000 C   0  0  0  0  0  0  0  0  0  0  0  0
    0.0000    0.0000    0.0000 F   0  0  0  0  0  0  0  0  0  0  0  0
    0.0000    0.0000    0.0000 C   0  0  0  0  0  0  0  0  0  0  0  0
    0.0000    0.0000    0.0000 C   0  0  0  0  0  0  0  0  0  0  0  0
    0.0000    0.0000    0.0000 C   0  0  0  0  0  0  0  0  0  0  0  0
    0.0000    0.0000    0.0000 C   0  0  0  0  0  0  0  0  0  0  0  0
    0.0000    0.0000    0.0000 C   0  0  0  0  0  0  0  0  0  0  0  0
    0.0000    0.0000    0.0000 N   0  0  0  0  0  0  0  0  0  0  0  0
    0.0000    0.0000    0.0000 C   0  0  0  0  0  0  0  0  0  0  0  0
    0.0000    0.0000    0.0000 C   0  0  0  0  0  0  0  0  0  0  0  0
    0.0000    0.0000    0.0000 C   0  0  0  0  0  0  0  0  0  0  0  0
    0.0000    0.0000    0.0000 C   0  0  0  0  0  0  0  0  0  0  0  0
    0.0000    0.0000    0.0000 C   0  0  0  0  0  0  0  0  0  0  0  0
    0.0000    0.0000    0.0000 C   0  0  0  0  0  0  0  0  0  0  0  0
    0.0000    0.0000    0.0000 C   0  0  0  0  0  0  0  0  0  0  0  0
    0.0000    0.0000    0.0000 C   0  0  0  0  0  0  0  0  0  0  0  0
    0.0000    0.0000    0.0000 C   0  0  0  0  0  0  0  0  0  0  0  0
    0.0000    0.0000    0.0000 C   0  0  0  0  0  0  0  0  0  0  0  0
    0.0000    0.0000    0.0000 C   0  0  0  0  0  0  0  0  0  0  0  0
    0.0000    0.0000    0.0000 C   0  0  0  0  0  0  0  0  0  0  0  0
    0.0000    0.0000    0.0000 O   0  0  0  0  0  0  0  0  0  0  0  0
    0.0000    0.0000    0.0000 C   0  0  0  0  0  0  0  0  0  0  0  0
    0.0000    0.0000    0.0000 C   0  0  0  0  0  0  0  0  0  0  0  0
    0.0000    0.0000    0.0000 O   0  0  0  0  0  0  0  0  0  0  0  0
    0.0000    0.0000    0.0000 C   0  0  0  0  0  0  0  0  0  0  0  0
  1  2  1  0
  2  3  1  0
  3  4  2  0
  4  5  1  0
  5  6  2  0
  6  7  1  0
  7  8  1  0
  8  9  1  0
  9 10  1  0
 10 11  1  0
 11 12  1  0
 11 13  1  0
 13 14  1  0
 14 15  1  0
 15 16  1  0
 16 17  1  0
 17 18  2  0
 18 19  1  0
 19 20  2  0
 20 21  1  0
 20 22  1  0
 22 23  2  0
 16 24  1  0
 24 25  1  0
 25 26  1  0
 26 27  1  0
 27 28  1  0
 28 29  1  0
 29 30  1  0
 30 31  1  0
 31 32  1  0
 32 33  1  0
 33 34  1  0
 34 35  1  0
 35 36  1  0
 27 37  1  0
 37 38  1  0
 24 39  1  0
 39 40  2  0
  6 41  1  0
 41 42  2  0
 42 43  1  0
 43 44  1  0
 42  3  1  0
 39 14  1  0
 23 17  1  0
 38 24  1  0
 36 29  1  0
M  END
>  <pIC50>  (811) 
6.0

>  <ChEMBL_ID>  (811) 
CHEMBL3394753

>  <document_journal>  (811) 
Bioorg. Med. Chem. Lett.

>  <bao_endpoint>  (811) 
BAO_0000190

>  <potential_duplicate>  (811) 
False

>  <uo_units>  (811) 
UO_0000065

>  <canonical_smiles>  (811) 
COc1ccc(CCNC[C@H](O)CN2CN(c3ccc(F)cc3)C4(CCN(CC5CCCCCCC5)CC4)C2=O)cc1OC

>  <parent_molecule_chembl_id>  (811) 
CHEMBL3394753

>  <assay_type>  (811) 
B

>  <src_id>  (811) 
1

>  <ligand_efficiency>  (811) 
{u'le': u'0.19', u'bei': u'9.83', u'sei': u'7.75', u'lle': u'0.49'}

>  <standard_flag>  (811) 
True

>  <molecule_chembl_id>  (811) 
CHEMBL3394753

>  <target_organism>  (811) 
Homo sapiens

>  <standard_units>  (811) 
nM

>  <record_id>  (811) 
2278537

>  <document_chembl_id>  (811) 
CHEMBL3393026

>  <bao_format>  (811) 
BAO_0000219

>  <data_validity_description>  (811) 
None

>  <activity_id>  (811) 
15147355

>  <standard_type>  (811) 
IC50

>  <target_chembl_id>  (811) 
CHEMBL233

>  <data_validity_comment>  (811) 
None

>  <published_value>  (811) 
0.99

>  <document_year>  (811) 
2015

>  <target_pref_name>  (811) 
Mu opioid receptor

>  <assay_chembl_id>  (811) 
CHEMBL3395052

>  <standard_relation>  (811) 
=

>  <assay_description>  (811) 
Displacement of [3H]DAMGO from human Mu opioid receptor expressed in HEK293 cells after 2 hrs by scintillation counting

>  <published_relation>  (811) 
=

>  <standard_value>  (811) 
990

>  <qudt_units>  (811) 
http://www.openphacts.org/units/Nanomolar

>  <target_tax_id>  (811) 
9606

>  <bao_label>  (811) 
cell-based format

>  <published_units>  (811) 
uM

>  <pchembl_value>  (811) 
6

>  <published_type>  (811) 
IC50

>  <activity_comment>  (811) 
None

$$$$

     RDKit          

 39 43  0  0  0  0  0  0  0  0999 V2000
    0.0000    0.0000    0.0000 C   0  0  0  0  0  0  0  0  0  0  0  0
    0.0000    0.0000    0.0000 C   0  0  0  0  0  0  0  0  0  0  0  0
    0.0000    0.0000    0.0000 C   0  0  0  0  0  0  0  0  0  0  0  0
    0.0000    0.0000    0.0000 C   0  0  0  0  0  0  0  0  0  0  0  0
    0.0000    0.0000    0.0000 C   0  0  0  0  0  0  0  0  0  0  0  0
    0.0000    0.0000    0.0000 C   0  0  0  0  0  0  0  0  0  0  0  0
    0.0000    0.0000    0.0000 S   0  0  0  0  0  0  0  0  0  0  0  0
    0.0000    0.0000    0.0000 C   0  0  0  0  0  0  0  0  0  0  0  0
    0.0000    0.0000    0.0000 C   0  0  0  0  0  0  0  0  0  0  0  0
    0.0000    0.0000    0.0000 O   0  0  0  0  0  0  0  0  0  0  0  0
    0.0000    0.0000    0.0000 C   0  0  0  0  0  0  0  0  0  0  0  0
    0.0000    0.0000    0.0000 N   0  0  0  0  0  0  0  0  0  0  0  0
    0.0000    0.0000    0.0000 C   0  0  0  0  0  0  0  0  0  0  0  0
    0.0000    0.0000    0.0000 N   0  0  0  0  0  0  0  0  0  0  0  0
    0.0000    0.0000    0.0000 C   0  0  0  0  0  0  0  0  0  0  0  0
    0.0000    0.0000    0.0000 C   0  0  0  0  0  0  0  0  0  0  0  0
    0.0000    0.0000    0.0000 C   0  0  0  0  0  0  0  0  0  0  0  0
    0.0000    0.0000    0.0000 C   0  0  0  0  0  0  0  0  0  0  0  0
    0.0000    0.0000    0.0000 F   0  0  0  0  0  0  0  0  0  0  0  0
    0.0000    0.0000    0.0000 C   0  0  0  0  0  0  0  0  0  0  0  0
    0.0000    0.0000    0.0000 C   0  0  0  0  0  0  0  0  0  0  0  0
    0.0000    0.0000    0.0000 C   0  0  0  0  0  0  0  0  0  0  0  0
    0.0000    0.0000    0.0000 C   0  0  0  0  0  0  0  0  0  0  0  0
    0.0000    0.0000    0.0000 C   0  0  0  0  0  0  0  0  0  0  0  0
    0.0000    0.0000    0.0000 N   0  0  0  0  0  0  0  0  0  0  0  0
    0.0000    0.0000    0.0000 C   0  0  0  0  0  0  0  0  0  0  0  0
    0.0000    0.0000    0.0000 C   0  0  0  0  0  0  0  0  0  0  0  0
    0.0000    0.0000    0.0000 C   0  0  0  0  0  0  0  0  0  0  0  0
    0.0000    0.0000    0.0000 C   0  0  0  0  0  0  0  0  0  0  0  0
    0.0000    0.0000    0.0000 C   0  0  0  0  0  0  0  0  0  0  0  0
    0.0000    0.0000    0.0000 C   0  0  0  0  0  0  0  0  0  0  0  0
    0.0000    0.0000    0.0000 C   0  0  0  0  0  0  0  0  0  0  0  0
    0.0000    0.0000    0.0000 C   0  0  0  0  0  0  0  0  0  0  0  0
    0.0000    0.0000    0.0000 C   0  0  0  0  0  0  0  0  0  0  0  0
    0.0000    0.0000    0.0000 C   0  0  0  0  0  0  0  0  0  0  0  0
    0.0000    0.0000    0.0000 C   0  0  0  0  0  0  0  0  0  0  0  0
    0.0000    0.0000    0.0000 C   0  0  0  0  0  0  0  0  0  0  0  0
    0.0000    0.0000    0.0000 O   0  0  0  0  0  0  0  0  0  0  0  0
    0.0000    0.0000    0.0000 C   0  0  0  0  0  0  0  0  0  0  0  0
  1  2  1  0
  2  3  2  0
  3  4  1  0
  4  5  2  0
  5  6  1  0
  6  7  1  0
  7  8  1  0
  8  9  1  0
  9 10  1  0
  9 11  1  0
 11 12  1  0
 12 13  1  0
 13 14  1  0
 14 15  1  0
 15 16  2  0
 16 17  1  0
 17 18  2  0
 18 19  1  0
 18 20  1  0
 20 21  2  0
 14 22  1  0
 22 23  1  0
 23 24  1  0
 24 25  1  0
 25 26  1  0
 26 27  1  0
 27 28  1  0
 28 29  1  0
 29 30  1  0
 30 31  1  0
 31 32  1  0
 32 33  1  0
 33 34  1  0
 25 35  1  0
 35 36  1  0
 22 37  1  0
 37 38  2  0
  6 39  2  0
 39  2  1  0
 37 12  1  0
 21 15  1  0
 36 22  1  0
 34 27  1  0
M  END
>  <pIC50>  (812) 
6.27

>  <ChEMBL_ID>  (812) 
CHEMBL3394754

>  <document_journal>  (812) 
Bioorg. Med. Chem. Lett.

>  <bao_endpoint>  (812) 
BAO_0000190

>  <potential_duplicate>  (812) 
False

>  <uo_units>  (812) 
UO_0000065

>  <canonical_smiles>  (812) 
Cc1cccc(SC[C@H](O)CN2CN(c3ccc(F)cc3)C4(CCN(CC5CCCCCCC5)CC4)C2=O)c1

>  <parent_molecule_chembl_id>  (812) 
CHEMBL3394754

>  <assay_type>  (812) 
B

>  <src_id>  (812) 
1

>  <ligand_efficiency>  (812) 
{u'le': u'0.22', u'bei': u'11.32', u'sei': u'8.67', u'lle': u'-0.44'}

>  <standard_flag>  (812) 
True

>  <molecule_chembl_id>  (812) 
CHEMBL3394754

>  <target_organism>  (812) 
Homo sapiens

>  <standard_units>  (812) 
nM

>  <record_id>  (812) 
2278538

>  <document_chembl_id>  (812) 
CHEMBL3393026

>  <bao_format>  (812) 
BAO_0000219

>  <data_validity_description>  (812) 
None

>  <activity_id>  (812) 
15147356

>  <standard_type>  (812) 
IC50

>  <target_chembl_id>  (812) 
CHEMBL233

>  <data_validity_comment>  (812) 
None

>  <published_value>  (812) 
0.54

>  <document_year>  (812) 
2015

>  <target_pref_name>  (812) 
Mu opioid receptor

>  <assay_chembl_id>  (812) 
CHEMBL3395052

>  <standard_relation>  (812) 
=

>  <assay_description>  (812) 
Displacement of [3H]DAMGO from human Mu opioid receptor expressed in HEK293 cells after 2 hrs by scintillation counting

>  <published_relation>  (812) 
=

>  <standard_value>  (812) 
540

>  <qudt_units>  (812) 
http://www.openphacts.org/units/Nanomolar

>  <target_tax_id>  (812) 
9606

>  <bao_label>  (812) 
cell-based format

>  <published_units>  (812) 
uM

>  <pchembl_value>  (812) 
6.27

>  <published_type>  (812) 
IC50

>  <activity_comment>  (812) 
None

$$$$

     RDKit          

 44 48  0  0  0  0  0  0  0  0999 V2000
    0.0000    0.0000    0.0000 C   0  0  0  0  0  0  0  0  0  0  0  0
    0.0000    0.0000    0.0000 O   0  0  0  0  0  0  0  0  0  0  0  0
    0.0000    0.0000    0.0000 C   0  0  0  0  0  0  0  0  0  0  0  0
    0.0000    0.0000    0.0000 C   0  0  0  0  0  0  0  0  0  0  0  0
    0.0000    0.0000    0.0000 C   0  0  0  0  0  0  0  0  0  0  0  0
    0.0000    0.0000    0.0000 C   0  0  0  0  0  0  0  0  0  0  0  0
    0.0000    0.0000    0.0000 C   0  0  0  0  0  0  0  0  0  0  0  0
    0.0000    0.0000    0.0000 C   0  0  0  0  0  0  0  0  0  0  0  0
    0.0000    0.0000    0.0000 O   0  0  0  0  0  0  0  0  0  0  0  0
    0.0000    0.0000    0.0000 C   0  0  0  0  0  0  0  0  0  0  0  0
    0.0000    0.0000    0.0000 C   0  0  0  0  0  0  0  0  0  0  0  0
    0.0000    0.0000    0.0000 O   0  0  0  0  0  0  0  0  0  0  0  0
    0.0000    0.0000    0.0000 C   0  0  0  0  0  0  0  0  0  0  0  0
    0.0000    0.0000    0.0000 N   0  0  0  0  0  0  0  0  0  0  0  0
    0.0000    0.0000    0.0000 C   0  0  0  0  0  0  0  0  0  0  0  0
    0.0000    0.0000    0.0000 N   0  0  0  0  0  0  0  0  0  0  0  0
    0.0000    0.0000    0.0000 C   0  0  0  0  0  0  0  0  0  0  0  0
    0.0000    0.0000    0.0000 C   0  0  0  0  0  0  0  0  0  0  0  0
    0.0000    0.0000    0.0000 C   0  0  0  0  0  0  0  0  0  0  0  0
    0.0000    0.0000    0.0000 C   0  0  0  0  0  0  0  0  0  0  0  0
    0.0000    0.0000    0.0000 F   0  0  0  0  0  0  0  0  0  0  0  0
    0.0000    0.0000    0.0000 C   0  0  0  0  0  0  0  0  0  0  0  0
    0.0000    0.0000    0.0000 C   0  0  0  0  0  0  0  0  0  0  0  0
    0.0000    0.0000    0.0000 C   0  0  0  0  0  0  0  0  0  0  0  0
    0.0000    0.0000    0.0000 C   0  0  0  0  0  0  0  0  0  0  0  0
    0.0000    0.0000    0.0000 C   0  0  0  0  0  0  0  0  0  0  0  0
    0.0000    0.0000    0.0000 N   0  0  0  0  0  0  0  0  0  0  0  0
    0.0000    0.0000    0.0000 C   0  0  0  0  0  0  0  0  0  0  0  0
    0.0000    0.0000    0.0000 C   0  0  0  0  0  0  0  0  0  0  0  0
    0.0000    0.0000    0.0000 C   0  0  0  0  0  0  0  0  0  0  0  0
    0.0000    0.0000    0.0000 C   0  0  0  0  0  0  0  0  0  0  0  0
    0.0000    0.0000    0.0000 C   0  0  0  0  0  0  0  0  0  0  0  0
    0.0000    0.0000    0.0000 C   0  0  0  0  0  0  0  0  0  0  0  0
    0.0000    0.0000    0.0000 C   0  0  0  0  0  0  0  0  0  0  0  0
    0.0000    0.0000    0.0000 C   0  0  0  0  0  0  0  0  0  0  0  0
    0.0000    0.0000    0.0000 C   0  0  0  0  0  0  0  0  0  0  0  0
    0.0000    0.0000    0.0000 C   0  0  0  0  0  0  0  0  0  0  0  0
    0.0000    0.0000    0.0000 C   0  0  0  0  0  0  0  0  0  0  0  0
    0.0000    0.0000    0.0000 C   0  0  0  0  0  0  0  0  0  0  0  0
    0.0000    0.0000    0.0000 O   0  0  0  0  0  0  0  0  0  0  0  0
    0.0000    0.0000    0.0000 C   0  0  0  0  0  0  0  0  0  0  0  0
    0.0000    0.0000    0.0000 C   0  0  0  0  0  0  0  0  0  0  0  0
    0.0000    0.0000    0.0000 O   0  0  0  0  0  0  0  0  0  0  0  0
    0.0000    0.0000    0.0000 C   0  0  0  0  0  0  0  0  0  0  0  0
  1  2  1  0
  2  3  1  0
  3  4  2  0
  4  5  1  0
  5  6  2  0
  6  7  1  0
  7  8  1  0
  8  9  1  0
  9 10  1  0
 10 11  1  0
 11 12  1  0
 11 13  1  0
 13 14  1  0
 14 15  1  0
 15 16  1  0
 16 17  1  0
 17 18  2  0
 18 19  1  0
 19 20  2  0
 20 21  1  0
 20 22  1  0
 22 23  2  0
 16 24  1  0
 24 25  1  0
 25 26  1  0
 26 27  1  0
 27 28  1  0
 28 29  1  0
 29 30  1  0
 30 31  1  0
 31 32  1  0
 32 33  1  0
 33 34  1  0
 34 35  1  0
 35 36  1  0
 27 37  1  0
 37 38  1  0
 24 39  1  0
 39 40  2  0
  6 41  1  0
 41 42  2  0
 42 43  1  0
 43 44  1  0
 42  3  1  0
 39 14  1  0
 23 17  1  0
 38 24  1  0
 36 29  1  0
M  END
>  <pIC50>  (813) 
5.59

>  <ChEMBL_ID>  (813) 
CHEMBL3394755

>  <document_journal>  (813) 
Bioorg. Med. Chem. Lett.

>  <bao_endpoint>  (813) 
BAO_0000190

>  <potential_duplicate>  (813) 
False

>  <uo_units>  (813) 
UO_0000065

>  <canonical_smiles>  (813) 
COc1ccc(CCOC[C@H](O)CN2CN(c3ccc(F)cc3)C4(CCN(CC5CCCCCCC5)CC4)C2=O)cc1OC

>  <parent_molecule_chembl_id>  (813) 
CHEMBL3394755

>  <assay_type>  (813) 
B

>  <src_id>  (813) 
1

>  <ligand_efficiency>  (813) 
{u'le': u'0.17', u'bei': u'9.13', u'sei': u'7.48', u'lle': u'-0.19'}

>  <standard_flag>  (813) 
True

>  <molecule_chembl_id>  (813) 
CHEMBL3394755

>  <target_organism>  (813) 
Homo sapiens

>  <standard_units>  (813) 
nM

>  <record_id>  (813) 
2278539

>  <document_chembl_id>  (813) 
CHEMBL3393026

>  <bao_format>  (813) 
BAO_0000219

>  <data_validity_description>  (813) 
None

>  <activity_id>  (813) 
15147357

>  <standard_type>  (813) 
IC50

>  <target_chembl_id>  (813) 
CHEMBL233

>  <data_validity_comment>  (813) 
None

>  <published_value>  (813) 
2.6

>  <document_year>  (813) 
2015

>  <target_pref_name>  (813) 
Mu opioid receptor

>  <assay_chembl_id>  (813) 
CHEMBL3395052

>  <standard_relation>  (813) 
=

>  <assay_description>  (813) 
Displacement of [3H]DAMGO from human Mu opioid receptor expressed in HEK293 cells after 2 hrs by scintillation counting

>  <published_relation>  (813) 
=

>  <standard_value>  (813) 
2600

>  <qudt_units>  (813) 
http://www.openphacts.org/units/Nanomolar

>  <target_tax_id>  (813) 
9606

>  <bao_label>  (813) 
cell-based format

>  <published_units>  (813) 
uM

>  <pchembl_value>  (813) 
5.59

>  <published_type>  (813) 
IC50

>  <activity_comment>  (813) 
None

$$$$

     RDKit          

 47 51  0  0  0  0  0  0  0  0999 V2000
    0.0000    0.0000    0.0000 C   0  0  0  0  0  0  0  0  0  0  0  0
    0.0000    0.0000    0.0000 C   0  0  0  0  0  0  0  0  0  0  0  0
    0.0000    0.0000    0.0000 C   0  0  0  0  0  0  0  0  0  0  0  0
    0.0000    0.0000    0.0000 C   0  0  0  0  0  0  0  0  0  0  0  0
    0.0000    0.0000    0.0000 N   0  0  0  0  0  0  0  0  0  0  0  0
    0.0000    0.0000    0.0000 C   0  0  0  0  0  0  0  0  0  0  0  0
    0.0000    0.0000    0.0000 O   0  0  0  0  0  0  0  0  0  0  0  0
    0.0000    0.0000    0.0000 N   0  0  0  0  0  0  0  0  0  0  0  0
    0.0000    0.0000    0.0000 C   0  0  0  0  0  0  0  0  0  0  0  0
    0.0000    0.0000    0.0000 C   0  0  0  0  0  0  0  0  0  0  0  0
    0.0000    0.0000    0.0000 O   0  0  0  0  0  0  0  0  0  0  0  0
    0.0000    0.0000    0.0000 C   0  0  0  0  0  0  0  0  0  0  0  0
    0.0000    0.0000    0.0000 N   0  0  0  0  0  0  0  0  0  0  0  0
    0.0000    0.0000    0.0000 C   0  0  0  0  0  0  0  0  0  0  0  0
    0.0000    0.0000    0.0000 N   0  0  0  0  0  0  0  0  0  0  0  0
    0.0000    0.0000    0.0000 C   0  0  0  0  0  0  0  0  0  0  0  0
    0.0000    0.0000    0.0000 C   0  0  0  0  0  0  0  0  0  0  0  0
    0.0000    0.0000    0.0000 C   0  0  0  0  0  0  0  0  0  0  0  0
    0.0000    0.0000    0.0000 C   0  0  0  0  0  0  0  0  0  0  0  0
    0.0000    0.0000    0.0000 F   0  0  0  0  0  0  0  0  0  0  0  0
    0.0000    0.0000    0.0000 C   0  0  0  0  0  0  0  0  0  0  0  0
    0.0000    0.0000    0.0000 C   0  0  0  0  0  0  0  0  0  0  0  0
    0.0000    0.0000    0.0000 C   0  0  0  0  0  0  0  0  0  0  0  0
    0.0000    0.0000    0.0000 C   0  0  0  0  0  0  0  0  0  0  0  0
    0.0000    0.0000    0.0000 C   0  0  0  0  0  0  0  0  0  0  0  0
    0.0000    0.0000    0.0000 N   0  0  0  0  0  0  0  0  0  0  0  0
    0.0000    0.0000    0.0000 C   0  0  0  0  0  0  0  0  0  0  0  0
    0.0000    0.0000    0.0000 C   0  0  0  0  0  0  0  0  0  0  0  0
    0.0000    0.0000    0.0000 C   0  0  0  0  0  0  0  0  0  0  0  0
    0.0000    0.0000    0.0000 C   0  0  0  0  0  0  0  0  0  0  0  0
    0.0000    0.0000    0.0000 C   0  0  0  0  0  0  0  0  0  0  0  0
    0.0000    0.0000    0.0000 C   0  0  0  0  0  0  0  0  0  0  0  0
    0.0000    0.0000    0.0000 C   0  0  0  0  0  0  0  0  0  0  0  0
    0.0000    0.0000    0.0000 C   0  0  0  0  0  0  0  0  0  0  0  0
    0.0000    0.0000    0.0000 C   0  0  0  0  0  0  0  0  0  0  0  0
    0.0000    0.0000    0.0000 C   0  0  0  0  0  0  0  0  0  0  0  0
    0.0000    0.0000    0.0000 C   0  0  0  0  0  0  0  0  0  0  0  0
    0.0000    0.0000    0.0000 C   0  0  0  0  0  0  0  0  0  0  0  0
    0.0000    0.0000    0.0000 O   0  0  0  0  0  0  0  0  0  0  0  0
    0.0000    0.0000    0.0000 C   0  0  0  0  0  0  0  0  0  0  0  0
    0.0000    0.0000    0.0000 C   0  0  0  0  0  0  0  0  0  0  0  0
    0.0000    0.0000    0.0000 C   0  0  0  0  0  0  0  0  0  0  0  0
    0.0000    0.0000    0.0000 C   0  0  0  0  0  0  0  0  0  0  0  0
    0.0000    0.0000    0.0000 C   0  0  0  0  0  0  0  0  0  0  0  0
    0.0000    0.0000    0.0000 C   0  0  0  0  0  0  0  0  0  0  0  0
    0.0000    0.0000    0.0000 C   0  0  0  0  0  0  0  0  0  0  0  0
    0.0000    0.0000    0.0000 C   0  0  0  0  0  0  0  0  0  0  0  0
  1  2  1  0
  2  3  1  0
  2  4  1  0
  4  5  1  0
  4  6  1  0
  6  7  2  0
  6  8  1  0
  8  9  1  0
  9 10  1  0
 10 11  1  0
 10 12  1  0
 12 13  1  0
 13 14  1  0
 14 15  1  0
 15 16  1  0
 16 17  2  0
 17 18  1  0
 18 19  2  0
 19 20  1  0
 19 21  1  0
 21 22  2  0
 15 23  1  0
 23 24  1  0
 24 25  1  0
 25 26  1  0
 26 27  1  0
 27 28  1  0
 28 29  1  0
 29 30  1  0
 30 31  1  0
 31 32  1  0
 32 33  1  0
 33 34  1  0
 34 35  1  0
 26 36  1  0
 36 37  1  0
 23 38  1  0
 38 39  2  0
  8 40  1  0
 40 41  1  0
 41 42  2  0
 42 43  1  0
 43 44  2  0
 44 45  1  0
 44 46  1  0
 46 47  2  0
 38 13  1  0
 22 16  1  0
 37 23  1  0
 35 28  1  0
 47 41  1  0
M  END
>  <pIC50>  (814) 
6.09

>  <ChEMBL_ID>  (814) 
CHEMBL3394756

>  <document_journal>  (814) 
Bioorg. Med. Chem. Lett.

>  <bao_endpoint>  (814) 
BAO_0000190

>  <potential_duplicate>  (814) 
False

>  <uo_units>  (814) 
UO_0000065

>  <canonical_smiles>  (814) 
CC(C)[C@@H](N)C(=O)N(C[C@H](O)CN1CN(c2ccc(F)cc2)C3(CCN(CC4CCCCCCC4)CC3)C1=O)Cc5ccc(C)cc5

>  <parent_molecule_chembl_id>  (814) 
CHEMBL3394756

>  <assay_type>  (814) 
B

>  <src_id>  (814) 
1

>  <ligand_efficiency>  (814) 
{u'le': u'0.18', u'bei': u'9.37', u'sei': u'6.52', u'lle': u'0.22'}

>  <standard_flag>  (814) 
True

>  <molecule_chembl_id>  (814) 
CHEMBL3394756

>  <target_organism>  (814) 
Homo sapiens

>  <standard_units>  (814) 
nM

>  <record_id>  (814) 
2278540

>  <document_chembl_id>  (814) 
CHEMBL3393026

>  <bao_format>  (814) 
BAO_0000219

>  <data_validity_description>  (814) 
None

>  <activity_id>  (814) 
15147358

>  <standard_type>  (814) 
IC50

>  <target_chembl_id>  (814) 
CHEMBL233

>  <data_validity_comment>  (814) 
None

>  <published_value>  (814) 
0.82

>  <document_year>  (814) 
2015

>  <target_pref_name>  (814) 
Mu opioid receptor

>  <assay_chembl_id>  (814) 
CHEMBL3395052

>  <standard_relation>  (814) 
=

>  <assay_description>  (814) 
Displacement of [3H]DAMGO from human Mu opioid receptor expressed in HEK293 cells after 2 hrs by scintillation counting

>  <published_relation>  (814) 
=

>  <standard_value>  (814) 
820

>  <qudt_units>  (814) 
http://www.openphacts.org/units/Nanomolar

>  <target_tax_id>  (814) 
9606

>  <bao_label>  (814) 
cell-based format

>  <published_units>  (814) 
uM

>  <pchembl_value>  (814) 
6.09

>  <published_type>  (814) 
IC50

>  <activity_comment>  (814) 
None

$$$$

     RDKit          

 40 47  0  0  0  0  0  0  0  0999 V2000
    0.0000    0.0000    0.0000 C   0  0  0  0  0  0  0  0  0  0  0  0
    0.0000    0.0000    0.0000 O   0  0  0  0  0  0  0  0  0  0  0  0
    0.0000    0.0000    0.0000 C   0  0  0  0  0  0  0  0  0  0  0  0
    0.0000    0.0000    0.0000 C   0  0  0  0  0  0  0  0  0  0  0  0
    0.0000    0.0000    0.0000 N   0  0  0  0  0  0  0  0  0  0  0  0
    0.0000    0.0000    0.0000 C   0  0  0  0  0  0  0  0  0  0  0  0
    0.0000    0.0000    0.0000 Cl  0  0  0  0  0  0  0  0  0  0  0  0
    0.0000    0.0000    0.0000 C   0  0  0  0  0  0  0  0  0  0  0  0
    0.0000    0.0000    0.0000 C   0  0  0  0  0  0  0  0  0  0  0  0
    0.0000    0.0000    0.0000 C   0  0  0  0  0  0  0  0  0  0  0  0
    0.0000    0.0000    0.0000 C   0  0  0  0  0  0  0  0  0  0  0  0
    0.0000    0.0000    0.0000 C   0  0  0  0  0  0  0  0  0  0  0  0
    0.0000    0.0000    0.0000 C   0  0  0  0  0  0  0  0  0  0  0  0
    0.0000    0.0000    0.0000 C   0  0  0  0  0  0  0  0  0  0  0  0
    0.0000    0.0000    0.0000 O   0  0  0  0  0  0  0  0  0  0  0  0
    0.0000    0.0000    0.0000 N   0  0  0  0  0  0  0  0  0  0  0  0
    0.0000    0.0000    0.0000 C   0  0  0  0  0  0  0  0  0  0  0  0
    0.0000    0.0000    0.0000 C   0  0  0  0  0  0  0  0  0  0  0  0
    0.0000    0.0000    0.0000 C   0  0  0  0  0  0  0  0  0  0  0  0
    0.0000    0.0000    0.0000 C   0  0  0  0  0  0  0  0  0  0  0  0
    0.0000    0.0000    0.0000 O   0  0  0  0  0  0  0  0  0  0  0  0
    0.0000    0.0000    0.0000 C   0  0  0  0  0  0  0  0  0  0  0  0
    0.0000    0.0000    0.0000 C   0  0  0  0  0  0  0  0  0  0  0  0
    0.0000    0.0000    0.0000 C   0  0  0  0  0  0  0  0  0  0  0  0
    0.0000    0.0000    0.0000 C   0  0  0  0  0  0  0  0  0  0  0  0
    0.0000    0.0000    0.0000 C   0  0  0  0  0  0  0  0  0  0  0  0
    0.0000    0.0000    0.0000 C   0  0  0  0  0  0  0  0  0  0  0  0
    0.0000    0.0000    0.0000 O   0  0  0  0  0  0  0  0  0  0  0  0
    0.0000    0.0000    0.0000 C   0  0  0  0  0  0  0  0  0  0  0  0
    0.0000    0.0000    0.0000 O   0  0  0  0  0  0  0  0  0  0  0  0
    0.0000    0.0000    0.0000 C   0  0  0  0  0  0  0  0  0  0  0  0
    0.0000    0.0000    0.0000 C   0  0  0  0  0  0  0  0  0  0  0  0
    0.0000    0.0000    0.0000 C   0  0  0  0  0  0  0  0  0  0  0  0
    0.0000    0.0000    0.0000 C   0  0  0  0  0  0  0  0  0  0  0  0
    0.0000    0.0000    0.0000 N   0  0  0  0  0  0  0  0  0  0  0  0
    0.0000    0.0000    0.0000 C   0  0  0  0  0  0  0  0  0  0  0  0
    0.0000    0.0000    0.0000 C   0  0  0  0  0  0  0  0  0  0  0  0
    0.0000    0.0000    0.0000 C   0  0  0  0  0  0  0  0  0  0  0  0
    0.0000    0.0000    0.0000 C   0  0  0  0  0  0  0  0  0  0  0  0
    0.0000    0.0000    0.0000 C   0  0  0  0  0  0  0  0  0  0  0  0
  1  2  1  0
  2  3  1  0
  3  4  2  0
  4  5  1  0
  5  6  2  0
  6  7  1  0
  6  8  1  0
  8  9  2  0
  9 10  1  0
 10 11  2  0
 11 12  1  0
 12 13  2  0
  4 14  1  0
 14 15  2  0
 14 16  1  0
 16 17  1  0
 17 18  1  0
 18 19  1  0
 19 20  1  0
 20 21  1  0
 20 22  1  0
 22 23  1  0
 23 24  1  0
 24 25  2  0
 25 26  1  0
 26 27  2  0
 27 28  1  0
 27 29  1  0
 29 30  1  0
 30 31  1  0
 31 32  1  0
 32 33  1  0
 33 34  1  0
 34 35  1  0
 35 36  1  0
 36 37  1  0
 37 38  1  0
 38 39  1  0
 32 40  1  0
 13  3  1  0
 13  8  1  0
 31 17  1  0
 32 20  1  0
 35 22  1  0
 40 24  1  0
 40 29  2  0
 39 37  1  0
M  END
>  <pIC50>  (815) 
7.63

>  <ChEMBL_ID>  (815) 
CHEMBL2419121

>  <document_journal>  (815) 
Bioorg. Med. Chem.

>  <bao_endpoint>  (815) 
BAO_0000190

>  <potential_duplicate>  (815) 
False

>  <uo_units>  (815) 
UO_0000065

>  <canonical_smiles>  (815) 
COc1c(nc(Cl)c2ccccc12)C(=O)N[C@H]3CC[C@@]4(O)[C@H]5Cc6ccc(O)c7O[C@@H]3[C@]4(CCN5CC8CC8)c67

>  <parent_molecule_chembl_id>  (815) 
CHEMBL2419121

>  <assay_type>  (815) 
B

>  <src_id>  (815) 
1

>  <ligand_efficiency>  (815) 
{u'le': u'0.26', u'bei': u'13.57', u'sei': u'7.32', u'lle': u'3.53'}

>  <standard_flag>  (815) 
True

>  <molecule_chembl_id>  (815) 
CHEMBL2419121

>  <target_organism>  (815) 
Homo sapiens

>  <standard_units>  (815) 
nM

>  <record_id>  (815) 
2282470

>  <document_chembl_id>  (815) 
CHEMBL3400112

>  <bao_format>  (815) 
BAO_0000219

>  <data_validity_description>  (815) 
None

>  <activity_id>  (815) 
15172206

>  <standard_type>  (815) 
IC50

>  <target_chembl_id>  (815) 
CHEMBL233

>  <data_validity_comment>  (815) 
None

>  <published_value>  (815) 
23.7

>  <document_year>  (815) 
2015

>  <target_pref_name>  (815) 
Mu opioid receptor

>  <assay_chembl_id>  (815) 
CHEMBL3405699

>  <standard_relation>  (815) 
=

>  <assay_description>  (815) 
Antagonist activity at human MOR expressed in CHO cells assessed as inhibition of DAMGO-induced increase in intracellular Ca2+ level incubated for 15 mins prior to DAMGO addition by microplate reader analysis

>  <published_relation>  (815) 
=

>  <standard_value>  (815) 
23.7

>  <qudt_units>  (815) 
http://www.openphacts.org/units/Nanomolar

>  <target_tax_id>  (815) 
9606

>  <bao_label>  (815) 
cell-based format

>  <published_units>  (815) 
nM

>  <pchembl_value>  (815) 
7.63

>  <published_type>  (815) 
IC50

>  <activity_comment>  (815) 
None

$$$$

     RDKit          

 40 47  0  0  0  0  0  0  0  0999 V2000
    0.0000    0.0000    0.0000 O   0  0  0  0  0  0  0  0  0  0  0  0
    0.0000    0.0000    0.0000 C   0  0  0  0  0  0  0  0  0  0  0  0
    0.0000    0.0000    0.0000 C   0  0  0  0  0  0  0  0  0  0  0  0
    0.0000    0.0000    0.0000 C   0  0  0  0  0  0  0  0  0  0  0  0
    0.0000    0.0000    0.0000 C   0  0  0  0  0  0  0  0  0  0  0  0
    0.0000    0.0000    0.0000 C   0  0  0  0  0  0  0  0  0  0  0  0
    0.0000    0.0000    0.0000 C   0  0  0  0  0  0  0  0  0  0  0  0
    0.0000    0.0000    0.0000 N   0  0  0  0  0  0  0  0  0  0  0  0
    0.0000    0.0000    0.0000 C   0  0  0  0  0  0  0  0  0  0  0  0
    0.0000    0.0000    0.0000 C   0  0  0  0  0  0  0  0  0  0  0  0
    0.0000    0.0000    0.0000 C   0  0  0  0  0  0  0  0  0  0  0  0
    0.0000    0.0000    0.0000 C   0  0  0  0  0  0  0  0  0  0  0  0
    0.0000    0.0000    0.0000 C   0  0  0  0  0  0  0  0  0  0  0  0
    0.0000    0.0000    0.0000 C   0  0  0  0  0  0  0  0  0  0  0  0
    0.0000    0.0000    0.0000 C   0  0  0  0  0  0  0  0  0  0  0  0
    0.0000    0.0000    0.0000 C   0  0  0  0  0  0  0  0  0  0  0  0
    0.0000    0.0000    0.0000 O   0  0  0  0  0  0  0  0  0  0  0  0
    0.0000    0.0000    0.0000 C   0  0  0  0  0  0  0  0  0  0  0  0
    0.0000    0.0000    0.0000 C   0  0  0  0  0  0  0  0  0  0  0  0
    0.0000    0.0000    0.0000 C   0  0  0  0  0  0  0  0  0  0  0  0
    0.0000    0.0000    0.0000 C   0  0  0  0  0  0  0  0  0  0  0  0
    0.0000    0.0000    0.0000 C   0  0  0  0  0  0  0  0  0  0  0  0
    0.0000    0.0000    0.0000 C   0  0  0  0  0  0  0  0  0  0  0  0
    0.0000    0.0000    0.0000 O   0  0  0  0  0  0  0  0  0  0  0  0
    0.0000    0.0000    0.0000 N   0  0  0  0  0  0  0  0  0  0  0  0
    0.0000    0.0000    0.0000 C   0  0  0  0  0  0  0  0  0  0  0  0
    0.0000    0.0000    0.0000 O   0  0  0  0  0  0  0  0  0  0  0  0
    0.0000    0.0000    0.0000 C   0  0  0  0  0  0  0  0  0  0  0  0
    0.0000    0.0000    0.0000 C   0  0  0  0  0  0  0  0  0  0  0  0
    0.0000    0.0000    0.0000 C   0  0  0  0  0  0  0  0  0  0  0  0
    0.0000    0.0000    0.0000 C   0  0  0  0  0  0  0  0  0  0  0  0
    0.0000    0.0000    0.0000 C   0  0  0  0  0  0  0  0  0  0  0  0
    0.0000    0.0000    0.0000 C   0  0  0  0  0  0  0  0  0  0  0  0
    0.0000    0.0000    0.0000 C   0  0  0  0  0  0  0  0  0  0  0  0
    0.0000    0.0000    0.0000 C   0  0  0  0  0  0  0  0  0  0  0  0
    0.0000    0.0000    0.0000 C   0  0  0  0  0  0  0  0  0  0  0  0
    0.0000    0.0000    0.0000 N   0  0  0  0  0  0  0  0  0  0  0  0
    0.0000    0.0000    0.0000 N   0  0  0  0  0  0  0  0  0  0  0  0
    0.0000    0.0000    0.0000 O   0  0  0  0  0  0  0  0  0  0  0  0
    0.0000    0.0000    0.0000 O   0  0  0  0  0  0  0  0  0  0  0  0
  1  2  1  0
  2  3  2  0
  3  4  1  0
  4  5  2  0
  5  6  1  0
  6  7  1  0
  7  8  1  0
  8  9  1  0
  9 10  1  0
 10 11  1  0
 11 12  1  0
  8 13  1  0
 13 14  1  0
 14 15  1  0
 15 16  1  0
 16 17  1  0
 17 18  1  0
 18 19  2  0
 16 20  1  0
 20 21  1  0
 21 22  1  0
 22 23  1  0
 23 24  1  0
 20 25  1  0
 25 26  1  0
 26 27  2  0
 26 28  1  0
 28 29  2  0
 29 30  1  0
 30 31  2  0
 31 32  1  0
 32 33  2  0
 33 34  1  0
 34 35  2  0
 35 36  1  0
 36 37  2  0
 32 38  1  0
 38 39  2  0
 38 40  1  0
 18  2  1  0
 19  5  1  0
 23  7  1  0
 12 10  1  0
 19 15  1  0
 23 15  1  0
 37 28  1  0
 35 30  1  0
M  CHG  2  38   1  40  -1
M  END
>  <pIC50>  (816) 
5.56

>  <ChEMBL_ID>  (816) 
CHEMBL3401554

>  <document_journal>  (816) 
Bioorg. Med. Chem.

>  <bao_endpoint>  (816) 
BAO_0000190

>  <potential_duplicate>  (816) 
False

>  <uo_units>  (816) 
UO_0000065

>  <canonical_smiles>  (816) 
Oc1ccc2C[C@H]3N(CC4CC4)CC[C@@]56[C@@H](Oc1c25)[C@H](CC[C@@]36O)NC(=O)c7cc8cc(ccc8cn7)[N+](=O)[O-]

>  <parent_molecule_chembl_id>  (816) 
CHEMBL3401554

>  <assay_type>  (816) 
B

>  <src_id>  (816) 
1

>  <ligand_efficiency>  (816) 
{u'le': u'0.19', u'bei': u'10.25', u'sei': u'3.95', u'lle': u'2.42'}

>  <standard_flag>  (816) 
True

>  <molecule_chembl_id>  (816) 
CHEMBL3401554

>  <target_organism>  (816) 
Homo sapiens

>  <standard_units>  (816) 
nM

>  <record_id>  (816) 
2282477

>  <document_chembl_id>  (816) 
CHEMBL3400112

>  <bao_format>  (816) 
BAO_0000219

>  <data_validity_description>  (816) 
None

>  <activity_id>  (816) 
15172207

>  <standard_type>  (816) 
IC50

>  <target_chembl_id>  (816) 
CHEMBL233

>  <data_validity_comment>  (816) 
None

>  <published_value>  (816) 
2728

>  <document_year>  (816) 
2015

>  <target_pref_name>  (816) 
Mu opioid receptor

>  <assay_chembl_id>  (816) 
CHEMBL3405699

>  <standard_relation>  (816) 
=

>  <assay_description>  (816) 
Antagonist activity at human MOR expressed in CHO cells assessed as inhibition of DAMGO-induced increase in intracellular Ca2+ level incubated for 15 mins prior to DAMGO addition by microplate reader analysis

>  <published_relation>  (816) 
=

>  <standard_value>  (816) 
2728

>  <qudt_units>  (816) 
http://www.openphacts.org/units/Nanomolar

>  <target_tax_id>  (816) 
9606

>  <bao_label>  (816) 
cell-based format

>  <published_units>  (816) 
nM

>  <pchembl_value>  (816) 
5.56

>  <published_type>  (816) 
IC50

>  <activity_comment>  (816) 
None

$$$$

     RDKit          

 37 39  0  0  0  0  0  0  0  0999 V2000
    0.0000    0.0000    0.0000 C   0  0  0  0  0  0  0  0  0  0  0  0
    0.0000    0.0000    0.0000 O   0  0  0  0  0  0  0  0  0  0  0  0
    0.0000    0.0000    0.0000 C   0  0  0  0  0  0  0  0  0  0  0  0
    0.0000    0.0000    0.0000 C   0  0  0  0  0  0  0  0  0  0  0  0
    0.0000    0.0000    0.0000 C   0  0  0  0  0  0  0  0  0  0  0  0
    0.0000    0.0000    0.0000 O   0  0  0  0  0  0  0  0  0  0  0  0
    0.0000    0.0000    0.0000 C   0  0  0  0  0  0  0  0  0  0  0  0
    0.0000    0.0000    0.0000 C   0  0  0  0  0  0  0  0  0  0  0  0
    0.0000    0.0000    0.0000 C   0  0  0  0  0  0  0  0  0  0  0  0
    0.0000    0.0000    0.0000 C   0  0  0  0  0  0  0  0  0  0  0  0
    0.0000    0.0000    0.0000 C   0  0  0  0  0  0  0  0  0  0  0  0
    0.0000    0.0000    0.0000 C   0  0  0  0  0  0  0  0  0  0  0  0
    0.0000    0.0000    0.0000 O   0  0  0  0  0  0  0  0  0  0  0  0
    0.0000    0.0000    0.0000 C   0  0  0  0  0  0  0  0  0  0  0  0
    0.0000    0.0000    0.0000 C   0  0  0  0  0  0  0  0  0  0  0  0
    0.0000    0.0000    0.0000 O   0  0  0  0  0  0  0  0  0  0  0  0
    0.0000    0.0000    0.0000 N   0  0  0  0  0  0  0  0  0  0  0  0
    0.0000    0.0000    0.0000 C   0  0  0  0  0  0  0  0  0  0  0  0
    0.0000    0.0000    0.0000 C   0  0  0  0  0  0  0  0  0  0  0  0
    0.0000    0.0000    0.0000 C   0  0  0  0  0  0  0  0  0  0  0  0
    0.0000    0.0000    0.0000 N   0  0  0  0  0  0  0  0  0  0  0  0
    0.0000    0.0000    0.0000 C   0  0  0  0  0  0  0  0  0  0  0  0
    0.0000    0.0000    0.0000 C   0  0  0  0  0  0  0  0  0  0  0  0
    0.0000    0.0000    0.0000 O   0  0  0  0  0  0  0  0  0  0  0  0
    0.0000    0.0000    0.0000 C   0  0  0  0  0  0  0  0  0  0  0  0
    0.0000    0.0000    0.0000 O   0  0  0  0  0  0  0  0  0  0  0  0
    0.0000    0.0000    0.0000 N   0  0  0  0  0  0  0  0  0  0  0  0
    0.0000    0.0000    0.0000 C   0  0  0  0  0  0  0  0  0  0  0  0
    0.0000    0.0000    0.0000 C   0  0  0  0  0  0  0  0  0  0  0  0
    0.0000    0.0000    0.0000 C   0  0  0  0  0  0  0  0  0  0  0  0
    0.0000    0.0000    0.0000 C   0  0  0  0  0  0  0  0  0  0  0  0
    0.0000    0.0000    0.0000 C   0  0  0  0  0  0  0  0  0  0  0  0
    0.0000    0.0000    0.0000 C   0  0  0  0  0  0  0  0  0  0  0  0
    0.0000    0.0000    0.0000 C   0  0  0  0  0  0  0  0  0  0  0  0
    0.0000    0.0000    0.0000 C   0  0  0  0  0  0  0  0  0  0  0  0
    0.0000    0.0000    0.0000 C   0  0  0  0  0  0  0  0  0  0  0  0
    0.0000    0.0000    0.0000 C   0  0  0  0  0  0  0  0  0  0  0  0
  1  2  1  0
  2  3  1  0
  3  4  1  0
  4  5  1  0
  5  6  1  0
  6  7  1  0
  7  8  2  0
  8  9  1  0
  9 10  2  0
 10 11  1  0
 11 12  2  0
 12 13  1  0
 13 14  1  0
  9 15  1  0
 15 16  2  0
 15 17  1  0
 17 18  1  0
 18 19  1  0
 19 20  1  0
 20 21  1  0
 21 22  1  0
 22 23  1  0
 23 24  1  0
 24 25  1  0
 25 26  2  0
 25 27  1  0
 27 28  1  0
 28 29  1  0
 29 30  2  0
 30 31  1  0
 31 32  2  0
 32 33  1  0
 33 34  2  0
 17 35  1  0
 35 36  1  0
 35 37  1  0
 12  7  1  0
 23 19  1  0
 34 29  1  0
M  END
>  <pIC50>  (817) 
6.0

>  <ChEMBL_ID>  (817) 
CHEMBL3403995

>  <document_journal>  (817) 
Bioorg. Med. Chem. Lett.

>  <bao_endpoint>  (817) 
BAO_0000190

>  <potential_duplicate>  (817) 
False

>  <uo_units>  (817) 
UO_0000065

>  <canonical_smiles>  (817) 
COCCCOc1cc(ccc1OC)C(=O)N(C[C@@H]2CNC[C@H]2OC(=O)NCc3ccccc3)C(C)C

>  <parent_molecule_chembl_id>  (817) 
CHEMBL3403995

>  <assay_type>  (817) 
B

>  <src_id>  (817) 
1

>  <ligand_efficiency>  (817) 
{u'le': u'0.22', u'bei': u'11.68', u'sei': u'6.1', u'lle': u'3.21'}

>  <standard_flag>  (817) 
True

>  <molecule_chembl_id>  (817) 
CHEMBL3403995

>  <target_organism>  (817) 
Homo sapiens

>  <standard_units>  (817) 
nM

>  <record_id>  (817) 
2285641

>  <document_chembl_id>  (817) 
CHEMBL3400053

>  <bao_format>  (817) 
BAO_0000357

>  <data_validity_description>  (817) 
None

>  <activity_id>  (817) 
15178024

>  <standard_type>  (817) 
IC50

>  <target_chembl_id>  (817) 
CHEMBL233

>  <data_validity_comment>  (817) 
None

>  <published_value>  (817) 
1

>  <document_year>  (817) 
2015

>  <target_pref_name>  (817) 
Mu opioid receptor

>  <assay_chembl_id>  (817) 
CHEMBL3406663

>  <standard_relation>  (817) 
=

>  <assay_description>  (817) 
Inhibition of mu opioid receptor (unknown origin)

>  <published_relation>  (817) 
=

>  <standard_value>  (817) 
1000

>  <qudt_units>  (817) 
http://www.openphacts.org/units/Nanomolar

>  <target_tax_id>  (817) 
9606

>  <bao_label>  (817) 
single protein format

>  <published_units>  (817) 
uM

>  <pchembl_value>  (817) 
6

>  <published_type>  (817) 
IC50

>  <activity_comment>  (817) 
None

$$$$

     RDKit          

 86 96  0  0  0  0  0  0  0  0999 V2000
    0.0000    0.0000    0.0000 C   0  0  0  0  0  0  0  0  0  0  0  0
    0.0000    0.0000    0.0000 C   0  0  0  0  0  0  0  0  0  0  0  0
    0.0000    0.0000    0.0000 C   0  0  0  0  0  0  0  0  0  0  0  0
    0.0000    0.0000    0.0000 C   0  0  0  0  0  0  0  0  0  0  0  0
    0.0000    0.0000    0.0000 N   0  0  0  0  0  0  0  0  0  0  0  0
    0.0000    0.0000    0.0000 N   0  0  0  0  0  0  0  0  0  0  0  0
    0.0000    0.0000    0.0000 C   0  0  0  0  0  0  0  0  0  0  0  0
    0.0000    0.0000    0.0000 C   0  0  0  0  0  0  0  0  0  0  0  0
    0.0000    0.0000    0.0000 N   0  0  0  0  0  0  0  0  0  0  0  0
    0.0000    0.0000    0.0000 C   0  0  0  0  0  0  0  0  0  0  0  0
    0.0000    0.0000    0.0000 C   0  0  0  0  0  0  0  0  0  0  0  0
    0.0000    0.0000    0.0000 C   0  0  0  0  0  0  0  0  0  0  0  0
    0.0000    0.0000    0.0000 C   0  0  0  0  0  0  0  0  0  0  0  0
    0.0000    0.0000    0.0000 C   0  0  0  0  0  0  0  0  0  0  0  0
    0.0000    0.0000    0.0000 C   0  0  0  0  0  0  0  0  0  0  0  0
    0.0000    0.0000    0.0000 C   0  0  0  0  0  0  0  0  0  0  0  0
    0.0000    0.0000    0.0000 N   0  0  0  0  0  0  0  0  0  0  0  0
    0.0000    0.0000    0.0000 C   0  0  0  0  0  0  0  0  0  0  0  0
    0.0000    0.0000    0.0000 C   0  0  0  0  0  0  0  0  0  0  0  0
    0.0000    0.0000    0.0000 C   0  0  0  0  0  0  0  0  0  0  0  0
    0.0000    0.0000    0.0000 N   0  0  0  0  0  0  0  0  0  0  0  0
    0.0000    0.0000    0.0000 C   0  0  0  0  0  0  0  0  0  0  0  0
    0.0000    0.0000    0.0000 O   0  0  0  0  0  0  0  0  0  0  0  0
    0.0000    0.0000    0.0000 C   0  0  0  0  0  0  0  0  0  0  0  0
    0.0000    0.0000    0.0000 C   0  0  0  0  0  0  0  0  0  0  0  0
    0.0000    0.0000    0.0000 C   0  0  0  0  0  0  0  0  0  0  0  0
    0.0000    0.0000    0.0000 C   0  0  0  0  0  0  0  0  0  0  0  0
    0.0000    0.0000    0.0000 F   0  0  0  0  0  0  0  0  0  0  0  0
    0.0000    0.0000    0.0000 F   0  0  0  0  0  0  0  0  0  0  0  0
    0.0000    0.0000    0.0000 C   0  0  0  0  0  0  0  0  0  0  0  0
    0.0000    0.0000    0.0000 C   0  0  0  0  0  0  0  0  0  0  0  0
    0.0000    0.0000    0.0000 C   0  0  0  0  0  0  0  0  0  0  0  0
    0.0000    0.0000    0.0000 C   0  0  0  0  0  0  0  0  0  0  0  0
    0.0000    0.0000    0.0000 C   0  0  0  0  0  0  0  0  0  0  0  0
    0.0000    0.0000    0.0000 C   0  0  0  0  0  0  0  0  0  0  0  0
    0.0000    0.0000    0.0000 C   0  0  0  0  0  0  0  0  0  0  0  0
    0.0000    0.0000    0.0000 N   0  0  0  0  0  0  0  0  0  0  0  0
    0.0000    0.0000    0.0000 C   0  0  0  0  0  0  0  0  0  0  0  0
    0.0000    0.0000    0.0000 O   0  0  0  0  0  0  0  0  0  0  0  0
    0.0000    0.0000    0.0000 C   0  0  0  0  0  0  0  0  0  0  0  0
    0.0000    0.0000    0.0000 O   0  0  0  0  0  0  0  0  0  0  0  0
    0.0000    0.0000    0.0000 C   0  0  0  0  0  0  0  0  0  0  0  0
    0.0000    0.0000    0.0000 C   0  0  0  0  0  0  0  0  0  0  0  0
    0.0000    0.0000    0.0000 O   0  0  0  0  0  0  0  0  0  0  0  0
    0.0000    0.0000    0.0000 N   0  0  0  0  0  0  0  0  0  0  0  0
    0.0000    0.0000    0.0000 C   0  0  0  0  0  0  0  0  0  0  0  0
    0.0000    0.0000    0.0000 C   0  0  0  0  0  0  0  0  0  0  0  0
    0.0000    0.0000    0.0000 C   0  0  0  0  0  0  0  0  0  0  0  0
    0.0000    0.0000    0.0000 C   0  0  0  0  0  0  0  0  0  0  0  0
    0.0000    0.0000    0.0000 C   0  0  0  0  0  0  0  0  0  0  0  0
    0.0000    0.0000    0.0000 C   0  0  0  0  0  0  0  0  0  0  0  0
    0.0000    0.0000    0.0000 C   0  0  0  0  0  0  0  0  0  0  0  0
    0.0000    0.0000    0.0000 N   0  0  0  0  0  0  0  0  0  0  0  0
    0.0000    0.0000    0.0000 C   0  0  0  0  0  0  0  0  0  0  0  0
    0.0000    0.0000    0.0000 O   0  0  0  0  0  0  0  0  0  0  0  0
    0.0000    0.0000    0.0000 C   0  0  0  0  0  0  0  0  0  0  0  0
    0.0000    0.0000    0.0000 O   0  0  0  0  0  0  0  0  0  0  0  0
    0.0000    0.0000    0.0000 C   0  0  0  0  0  0  0  0  0  0  0  0
    0.0000    0.0000    0.0000 C   0  0  0  0  0  0  0  0  0  0  0  0
    0.0000    0.0000    0.0000 O   0  0  0  0  0  0  0  0  0  0  0  0
    0.0000    0.0000    0.0000 N   0  0  0  0  0  0  0  0  0  0  0  0
    0.0000    0.0000    0.0000 C   0  0  0  0  0  0  0  0  0  0  0  0
    0.0000    0.0000    0.0000 C   0  0  0  0  0  0  0  0  0  0  0  0
    0.0000    0.0000    0.0000 C   0  0  0  0  0  0  0  0  0  0  0  0
    0.0000    0.0000    0.0000 C   0  0  0  0  0  0  0  0  0  0  0  0
    0.0000    0.0000    0.0000 O   0  0  0  0  0  0  0  0  0  0  0  0
    0.0000    0.0000    0.0000 C   0  0  0  0  0  0  0  0  0  0  0  0
    0.0000    0.0000    0.0000 C   0  0  0  0  0  0  0  0  0  0  0  0
    0.0000    0.0000    0.0000 C   0  0  0  0  0  0  0  0  0  0  0  0
    0.0000    0.0000    0.0000 C   0  0  0  0  0  0  0  0  0  0  0  0
    0.0000    0.0000    0.0000 C   0  0  0  0  0  0  0  0  0  0  0  0
    0.0000    0.0000    0.0000 C   0  0  0  0  0  0  0  0  0  0  0  0
    0.0000    0.0000    0.0000 O   0  0  0  0  0  0  0  0  0  0  0  0
    0.0000    0.0000    0.0000 C   0  0  0  0  0  0  0  0  0  0  0  0
    0.0000    0.0000    0.0000 O   0  0  0  0  0  0  0  0  0  0  0  0
    0.0000    0.0000    0.0000 C   0  0  0  0  0  0  0  0  0  0  0  0
    0.0000    0.0000    0.0000 C   0  0  0  0  0  0  0  0  0  0  0  0
    0.0000    0.0000    0.0000 C   0  0  0  0  0  0  0  0  0  0  0  0
    0.0000    0.0000    0.0000 C   0  0  0  0  0  0  0  0  0  0  0  0
    0.0000    0.0000    0.0000 N   0  0  0  0  0  0  0  0  0  0  0  0
    0.0000    0.0000    0.0000 C   0  0  0  0  0  0  0  0  0  0  0  0
    0.0000    0.0000    0.0000 C   0  0  0  0  0  0  0  0  0  0  0  0
    0.0000    0.0000    0.0000 C   0  0  0  0  0  0  0  0  0  0  0  0
    0.0000    0.0000    0.0000 C   0  0  0  0  0  0  0  0  0  0  0  0
    0.0000    0.0000    0.0000 C   0  0  0  0  0  0  0  0  0  0  0  0
    0.0000    0.0000    0.0000 C   0  0  0  0  0  0  0  0  0  0  0  0
  1  2  1  0
  2  3  1  0
  2  4  1  0
  4  5  2  0
  5  6  1  0
  6  7  2  0
  7  8  1  0
  7  9  1  0
  9 10  1  0
 10 11  1  0
 11 12  1  0
 12 13  1  0
 13 14  1  0
 14 15  1  0
 15 16  1  0
 15 17  1  0
 17 18  1  0
 18 19  1  0
 19 20  1  0
 20 21  1  0
 21 22  1  0
 22 23  2  0
 22 24  1  0
 24 25  1  0
 25 26  1  0
 26 27  1  0
 27 28  1  0
 27 29  1  0
 27 30  1  0
 30 31  1  0
 20 32  1  0
 32 33  2  0
 33 34  1  0
 34 35  2  0
 35 36  1  0
 36 37  1  0
 37 38  1  0
 38 39  2  0
 38 40  1  0
 40 41  1  0
 41 42  1  0
 42 43  1  0
 43 44  2  0
 43 45  1  0
 45 46  1  0
 46 47  1  0
 47 48  1  0
 48 49  1  0
 49 50  1  0
 50 51  1  0
 51 52  1  0
 52 53  1  0
 53 54  1  0
 54 55  2  0
 54 56  1  0
 56 57  1  0
 57 58  1  0
 58 59  1  0
 59 60  2  0
 59 61  1  0
 61 62  1  0
 62 63  1  0
 63 64  1  0
 64 65  1  0
 65 66  1  0
 65 67  1  0
 67 68  1  0
 68 69  1  0
 69 70  2  0
 70 71  1  0
 71 72  2  0
 72 73  1  0
 72 74  1  0
 74 75  1  0
 75 76  1  0
 76 77  1  0
 77 78  1  0
 78 79  1  0
 79 80  1  0
 80 81  1  0
 81 82  1  0
 82 83  1  0
 83 84  1  0
 77 85  1  0
 36 86  2  0
  9  4  1  0
 16 10  1  0
 17 12  1  0
 31 24  1  0
 86 32  1  0
 76 62  1  0
 77 65  1  0
 80 67  1  0
 85 69  1  0
 85 74  2  0
 84 82  1  0
M  END
>  <pIC50>  (818) 
7.42

>  <ChEMBL_ID>  (818) 
CHEMBL3697625

>  <document_journal>  (818) 
None

>  <bao_endpoint>  (818) 
BAO_0000190

>  <potential_duplicate>  (818) 
False

>  <uo_units>  (818) 
UO_0000065

>  <canonical_smiles>  (818) 
CC(C)c1nnc(C)n1C2CC3CCC(C2)N3CC[C@H](NC(=O)C4CCC(F)(F)CC4)c5cccc(NC(=O)COCC(=O)NCCCCCCCNC(=O)COCC(=O)N[C@@H]6CC[C@@]7(O)[C@H]8Cc9ccc(O)c%10O[C@@H]6[C@]7(CCN8CC%11CC%11)c9%10)c5

>  <parent_molecule_chembl_id>  (818) 
CHEMBL3697625

>  <assay_type>  (818) 
B

>  <src_id>  (818) 
37

>  <ligand_efficiency>  (818) 
{u'le': None, u'bei': u'6.2', u'sei': None, u'lle': None}

>  <standard_flag>  (818) 
True

>  <molecule_chembl_id>  (818) 
CHEMBL3697625

>  <target_organism>  (818) 
Homo sapiens

>  <standard_units>  (818) 
nM

>  <record_id>  (818) 
2574610

>  <document_chembl_id>  (818) 
CHEMBL3638635

>  <bao_format>  (818) 
BAO_0000219

>  <data_validity_description>  (818) 
None

>  <activity_id>  (818) 
15856266

>  <standard_type>  (818) 
IC50

>  <target_chembl_id>  (818) 
CHEMBL233

>  <data_validity_comment>  (818) 
None

>  <published_value>  (818) 
37.8

>  <document_year>  (818) 
2015

>  <target_pref_name>  (818) 
Mu opioid receptor

>  <assay_chembl_id>  (818) 
CHEMBL3706101

>  <standard_relation>  (818) 
=

>  <assay_description>  (818) 
BindingDB_Patents: Flux Assay. As Ca2+ flux is associated with the activation of the MOR, the functional activity of bivalent ligand 1, monovalent ligand 2, and naltrexone was then evaluated in a Ca2+ mobilization assay in hMORCHO cells transfected with chimeric Ca2+ following a published protocol.23 No agonism was observed for any of the tested compounds (data not shown). Thus, they were further assessed for their antagonist properties as the ability to inhibit DAMGO (a MOR agonist) induced Ca2+ flux.

>  <published_relation>  (818) 
=

>  <standard_value>  (818) 
37.8

>  <qudt_units>  (818) 
http://www.openphacts.org/units/Nanomolar

>  <target_tax_id>  (818) 
9606

>  <bao_label>  (818) 
cell-based format

>  <published_units>  (818) 
nM

>  <pchembl_value>  (818) 
7.42

>  <published_type>  (818) 
IC50

>  <activity_comment>  (818) 
None

$$$$

     RDKit          

 77 82  0  0  0  0  0  0  0  0999 V2000
    0.0000    0.0000    0.0000 C   0  0  0  0  0  0  0  0  0  0  0  0
    0.0000    0.0000    0.0000 C   0  0  0  0  0  0  0  0  0  0  0  0
    0.0000    0.0000    0.0000 C   0  0  0  0  0  0  0  0  0  0  0  0
    0.0000    0.0000    0.0000 C   0  0  0  0  0  0  0  0  0  0  0  0
    0.0000    0.0000    0.0000 C   0  0  0  0  0  0  0  0  0  0  0  0
    0.0000    0.0000    0.0000 N   0  0  0  0  0  0  0  0  0  0  0  0
    0.0000    0.0000    0.0000 C   0  0  0  0  0  0  0  0  0  0  0  0
    0.0000    0.0000    0.0000 O   0  0  0  0  0  0  0  0  0  0  0  0
    0.0000    0.0000    0.0000 C   0  0  0  0  0  0  0  0  0  0  0  0
    0.0000    0.0000    0.0000 C   0  0  0  0  0  0  0  0  0  0  0  0
    0.0000    0.0000    0.0000 C   0  0  0  0  0  0  0  0  0  0  0  0
    0.0000    0.0000    0.0000 C   0  0  0  0  0  0  0  0  0  0  0  0
    0.0000    0.0000    0.0000 N   0  0  0  0  0  0  0  0  0  0  0  0
    0.0000    0.0000    0.0000 C   0  0  0  0  0  0  0  0  0  0  0  0
    0.0000    0.0000    0.0000 O   0  0  0  0  0  0  0  0  0  0  0  0
    0.0000    0.0000    0.0000 C   0  0  0  0  0  0  0  0  0  0  0  0
    0.0000    0.0000    0.0000 C   0  0  0  0  0  0  0  0  0  0  0  0
    0.0000    0.0000    0.0000 C   0  0  0  0  0  0  0  0  0  0  0  0
    0.0000    0.0000    0.0000 C   0  0  0  0  0  0  0  0  0  0  0  0
    0.0000    0.0000    0.0000 C   0  0  0  0  0  0  0  0  0  0  0  0
    0.0000    0.0000    0.0000 C   0  0  0  0  0  0  0  0  0  0  0  0
    0.0000    0.0000    0.0000 C   0  0  0  0  0  0  0  0  0  0  0  0
    0.0000    0.0000    0.0000 C   0  0  0  0  0  0  0  0  0  0  0  0
    0.0000    0.0000    0.0000 N   0  0  0  0  0  0  0  0  0  0  0  0
    0.0000    0.0000    0.0000 C   0  0  0  0  0  0  0  0  0  0  0  0
    0.0000    0.0000    0.0000 O   0  0  0  0  0  0  0  0  0  0  0  0
    0.0000    0.0000    0.0000 C   0  0  0  0  0  0  0  0  0  0  0  0
    0.0000    0.0000    0.0000 N   0  0  0  0  0  0  0  0  0  0  0  0
    0.0000    0.0000    0.0000 C   0  0  0  0  0  0  0  0  0  0  0  0
    0.0000    0.0000    0.0000 O   0  0  0  0  0  0  0  0  0  0  0  0
    0.0000    0.0000    0.0000 C   0  0  0  0  0  0  0  0  0  0  0  0
    0.0000    0.0000    0.0000 C   0  0  0  0  0  0  0  0  0  0  0  0
    0.0000    0.0000    0.0000 N   0  0  0  0  0  0  0  0  0  0  0  0
    0.0000    0.0000    0.0000 C   0  0  0  0  0  0  0  0  0  0  0  0
    0.0000    0.0000    0.0000 O   0  0  0  0  0  0  0  0  0  0  0  0
    0.0000    0.0000    0.0000 C   0  0  0  0  0  0  0  0  0  0  0  0
    0.0000    0.0000    0.0000 N   0  0  0  0  0  0  0  0  0  0  0  0
    0.0000    0.0000    0.0000 C   0  0  0  0  0  0  0  0  0  0  0  0
    0.0000    0.0000    0.0000 C   0  0  0  0  0  0  0  0  0  0  0  0
    0.0000    0.0000    0.0000 C   0  0  0  0  0  0  0  0  0  0  0  0
    0.0000    0.0000    0.0000 C   0  0  0  0  0  0  0  0  0  0  0  0
    0.0000    0.0000    0.0000 C   0  0  0  0  0  0  0  0  0  0  0  0
    0.0000    0.0000    0.0000 O   0  0  0  0  0  0  0  0  0  0  0  0
    0.0000    0.0000    0.0000 C   0  0  0  0  0  0  0  0  0  0  0  0
    0.0000    0.0000    0.0000 C   0  0  0  0  0  0  0  0  0  0  0  0
    0.0000    0.0000    0.0000 C   0  0  0  0  0  0  0  0  0  0  0  0
    0.0000    0.0000    0.0000 O   0  0  0  0  0  0  0  0  0  0  0  0
    0.0000    0.0000    0.0000 N   0  0  0  0  0  0  0  0  0  0  0  0
    0.0000    0.0000    0.0000 C   0  0  0  0  0  0  0  0  0  0  0  0
    0.0000    0.0000    0.0000 C   0  0  0  0  0  0  0  0  0  0  0  0
    0.0000    0.0000    0.0000 C   0  0  0  0  0  0  0  0  0  0  0  0
    0.0000    0.0000    0.0000 C   0  0  0  0  0  0  0  0  0  0  0  0
    0.0000    0.0000    0.0000 N   0  0  0  0  0  0  0  0  0  0  0  0
    0.0000    0.0000    0.0000 C   0  0  0  0  0  0  0  0  0  0  0  0
    0.0000    0.0000    0.0000 C   0  0  0  0  0  0  0  0  0  0  0  0
    0.0000    0.0000    0.0000 C   0  0  0  0  0  0  0  0  0  0  0  0
    0.0000    0.0000    0.0000 C   0  0  0  0  0  0  0  0  0  0  0  0
    0.0000    0.0000    0.0000 C   0  0  0  0  0  0  0  0  0  0  0  0
    0.0000    0.0000    0.0000 C   0  0  0  0  0  0  0  0  0  0  0  0
    0.0000    0.0000    0.0000 C   0  0  0  0  0  0  0  0  0  0  0  0
    0.0000    0.0000    0.0000 O   0  0  0  0  0  0  0  0  0  0  0  0
    0.0000    0.0000    0.0000 N   0  0  0  0  0  0  0  0  0  0  0  0
    0.0000    0.0000    0.0000 C   0  0  0  0  0  0  0  0  0  0  0  0
    0.0000    0.0000    0.0000 C   0  0  0  0  0  0  0  0  0  0  0  0
    0.0000    0.0000    0.0000 C   0  0  0  0  0  0  0  0  0  0  0  0
    0.0000    0.0000    0.0000 C   0  0  0  0  0  0  0  0  0  0  0  0
    0.0000    0.0000    0.0000 C   0  0  0  0  0  0  0  0  0  0  0  0
    0.0000    0.0000    0.0000 C   0  0  0  0  0  0  0  0  0  0  0  0
    0.0000    0.0000    0.0000 C   0  0  0  0  0  0  0  0  0  0  0  0
    0.0000    0.0000    0.0000 C   0  0  0  0  0  0  0  0  0  0  0  0
    0.0000    0.0000    0.0000 F   0  0  0  0  0  0  0  0  0  0  0  0
    0.0000    0.0000    0.0000 F   0  0  0  0  0  0  0  0  0  0  0  0
    0.0000    0.0000    0.0000 F   0  0  0  0  0  0  0  0  0  0  0  0
    0.0000    0.0000    0.0000 C   0  0  0  0  0  0  0  0  0  0  0  0
    0.0000    0.0000    0.0000 F   0  0  0  0  0  0  0  0  0  0  0  0
    0.0000    0.0000    0.0000 F   0  0  0  0  0  0  0  0  0  0  0  0
    0.0000    0.0000    0.0000 F   0  0  0  0  0  0  0  0  0  0  0  0
  1  2  1  0
  2  3  1  0
  2  4  1  0
  4  5  1  0
  5  6  1  0
  6  7  1  0
  7  8  2  0
  7  9  1  0
  9 10  1  0
 10 11  1  0
 11 12  1  0
 12 13  1  0
 13 14  1  0
 14 15  2  0
 14 16  1  0
 16 17  1  0
 17 18  1  0
 18 19  2  0
 19 20  1  0
 20 21  2  0
 21 22  1  0
 22 23  2  0
 16 24  1  0
 24 25  1  0
 25 26  2  0
 25 27  1  0
 27 28  1  0
 28 29  1  0
 29 30  2  0
 29 31  1  0
 31 32  1  0
 31 33  1  0
 33 34  1  0
 34 35  2  0
 34 36  1  0
 36 37  1  0
 36 38  1  0
 38 39  1  0
 39 40  2  0
 40 41  1  0
 41 42  2  0
 42 43  1  0
 42 44  1  0
 44 45  2  0
  5 46  1  0
 46 47  2  0
 46 48  1  0
 48 49  1  0
 49 50  1  0
 50 51  1  0
 51 52  2  0
 52 53  1  0
 53 54  1  0
 54 55  2  0
 55 56  1  0
 56 57  2  0
 57 58  1  0
 58 59  2  0
 49 60  1  0
 60 61  2  0
 60 62  1  0
 62 63  1  0
 63 64  1  0
 64 65  2  0
 65 66  1  0
 66 67  2  0
 67 68  1  0
 68 69  2  0
 68 70  1  0
 70 71  1  0
 70 72  1  0
 70 73  1  0
 66 74  1  0
 74 75  1  0
 74 76  1  0
 74 77  1  0
 13  9  1  0
 23 18  1  0
 45 39  1  0
 59 51  1  0
 59 54  1  0
 69 64  1  0
M  END
>  <pIC50>  (819) 
7.7

>  <ChEMBL_ID>  (819) 
CHEMBL438389

>  <document_journal>  (819) 
J. Med. Chem.

>  <bao_endpoint>  (819) 
BAO_0000190

>  <potential_duplicate>  (819) 
None

>  <uo_units>  (819) 
UO_0000065

>  <canonical_smiles>  (819) 
CC(C)C[C@H](NC(=O)[C@@H]1CCCN1C(=O)[C@H](Cc2ccccc2)NC(=O)CNC(=O)[C@@H](C)NC(=O)[C@@H](N)Cc3ccc(O)cc3)C(=O)N[C@@H](Cc4c[nH]c5ccccc45)C(=O)NCc6cc(cc(c6)C(F)(F)F)C(F)(F)F

>  <parent_molecule_chembl_id>  (819) 
CHEMBL438389

>  <assay_type>  (819) 
B

>  <src_id>  (819) 
1

>  <ligand_efficiency>  (819) 
None

>  <standard_flag>  (819) 
True

>  <molecule_chembl_id>  (819) 
CHEMBL438389

>  <target_organism>  (819) 
Homo sapiens

>  <standard_units>  (819) 
nM

>  <record_id>  (819) 
2736452

>  <document_chembl_id>  (819) 
CHEMBL3734657

>  <bao_format>  (819) 
None

>  <data_validity_description>  (819) 
None

>  <activity_id>  (819) 
16392790

>  <standard_type>  (819) 
IC50

>  <target_chembl_id>  (819) 
CHEMBL233

>  <data_validity_comment>  (819) 
None

>  <published_value>  (819) 
7.7

>  <document_year>  (819) 
2015

>  <target_pref_name>  (819) 
Mu opioid receptor

>  <assay_chembl_id>  (819) 
CHEMBL3738443

>  <standard_relation>  (819) 
=

>  <assay_description>  (819) 
Binding affinity to mu opioid receptor (unknown origin)

>  <published_relation>  (819) 
=

>  <standard_value>  (819) 
19.95

>  <qudt_units>  (819) 
http://www.openphacts.org/units/Nanomolar

>  <target_tax_id>  (819) 
9606

>  <bao_label>  (819) 
None

>  <published_units>  (819) 
None

>  <pchembl_value>  (819) 
7.7

>  <published_type>  (819) 
pIC50

>  <activity_comment>  (819) 
None

$$$$

     RDKit          

 80 85  0  0  0  0  0  0  0  0999 V2000
    0.0000    0.0000    0.0000 C   0  0  0  0  0  0  0  0  0  0  0  0
    0.0000    0.0000    0.0000 C   0  0  0  0  0  0  0  0  0  0  0  0
    0.0000    0.0000    0.0000 C   0  0  0  0  0  0  0  0  0  0  0  0
    0.0000    0.0000    0.0000 C   0  0  0  0  0  0  0  0  0  0  0  0
    0.0000    0.0000    0.0000 C   0  0  0  0  0  0  0  0  0  0  0  0
    0.0000    0.0000    0.0000 N   0  0  0  0  0  0  0  0  0  0  0  0
    0.0000    0.0000    0.0000 C   0  0  0  0  0  0  0  0  0  0  0  0
    0.0000    0.0000    0.0000 O   0  0  0  0  0  0  0  0  0  0  0  0
    0.0000    0.0000    0.0000 C   0  0  0  0  0  0  0  0  0  0  0  0
    0.0000    0.0000    0.0000 C   0  0  0  0  0  0  0  0  0  0  0  0
    0.0000    0.0000    0.0000 C   0  0  0  0  0  0  0  0  0  0  0  0
    0.0000    0.0000    0.0000 C   0  0  0  0  0  0  0  0  0  0  0  0
    0.0000    0.0000    0.0000 N   0  0  0  0  0  0  0  0  0  0  0  0
    0.0000    0.0000    0.0000 C   0  0  0  0  0  0  0  0  0  0  0  0
    0.0000    0.0000    0.0000 O   0  0  0  0  0  0  0  0  0  0  0  0
    0.0000    0.0000    0.0000 C   0  0  0  0  0  0  0  0  0  0  0  0
    0.0000    0.0000    0.0000 C   0  0  0  0  0  0  0  0  0  0  0  0
    0.0000    0.0000    0.0000 C   0  0  0  0  0  0  0  0  0  0  0  0
    0.0000    0.0000    0.0000 C   0  0  0  0  0  0  0  0  0  0  0  0
    0.0000    0.0000    0.0000 C   0  0  0  0  0  0  0  0  0  0  0  0
    0.0000    0.0000    0.0000 C   0  0  0  0  0  0  0  0  0  0  0  0
    0.0000    0.0000    0.0000 I   0  0  0  0  0  0  0  0  0  0  0  0
    0.0000    0.0000    0.0000 C   0  0  0  0  0  0  0  0  0  0  0  0
    0.0000    0.0000    0.0000 C   0  0  0  0  0  0  0  0  0  0  0  0
    0.0000    0.0000    0.0000 N   0  0  0  0  0  0  0  0  0  0  0  0
    0.0000    0.0000    0.0000 C   0  0  0  0  0  0  0  0  0  0  0  0
    0.0000    0.0000    0.0000 O   0  0  0  0  0  0  0  0  0  0  0  0
    0.0000    0.0000    0.0000 C   0  0  0  0  0  0  0  0  0  0  0  0
    0.0000    0.0000    0.0000 N   0  0  0  0  0  0  0  0  0  0  0  0
    0.0000    0.0000    0.0000 C   0  0  0  0  0  0  0  0  0  0  0  0
    0.0000    0.0000    0.0000 O   0  0  0  0  0  0  0  0  0  0  0  0
    0.0000    0.0000    0.0000 C   0  0  0  0  0  0  0  0  0  0  0  0
    0.0000    0.0000    0.0000 C   0  0  0  0  0  0  0  0  0  0  0  0
    0.0000    0.0000    0.0000 N   0  0  0  0  0  0  0  0  0  0  0  0
    0.0000    0.0000    0.0000 C   0  0  0  0  0  0  0  0  0  0  0  0
    0.0000    0.0000    0.0000 O   0  0  0  0  0  0  0  0  0  0  0  0
    0.0000    0.0000    0.0000 C   0  0  0  0  0  0  0  0  0  0  0  0
    0.0000    0.0000    0.0000 N   0  0  0  0  0  0  0  0  0  0  0  0
    0.0000    0.0000    0.0000 C   0  0  0  0  0  0  0  0  0  0  0  0
    0.0000    0.0000    0.0000 C   0  0  0  0  0  0  0  0  0  0  0  0
    0.0000    0.0000    0.0000 C   0  0  0  0  0  0  0  0  0  0  0  0
    0.0000    0.0000    0.0000 C   0  0  0  0  0  0  0  0  0  0  0  0
    0.0000    0.0000    0.0000 C   0  0  0  0  0  0  0  0  0  0  0  0
    0.0000    0.0000    0.0000 C   0  0  0  0  0  0  0  0  0  0  0  0
    0.0000    0.0000    0.0000 O   0  0  0  0  0  0  0  0  0  0  0  0
    0.0000    0.0000    0.0000 C   0  0  0  0  0  0  0  0  0  0  0  0
    0.0000    0.0000    0.0000 C   0  0  0  0  0  0  0  0  0  0  0  0
    0.0000    0.0000    0.0000 C   0  0  0  0  0  0  0  0  0  0  0  0
    0.0000    0.0000    0.0000 C   0  0  0  0  0  0  0  0  0  0  0  0
    0.0000    0.0000    0.0000 O   0  0  0  0  0  0  0  0  0  0  0  0
    0.0000    0.0000    0.0000 N   0  0  0  0  0  0  0  0  0  0  0  0
    0.0000    0.0000    0.0000 C   0  0  0  0  0  0  0  0  0  0  0  0
    0.0000    0.0000    0.0000 C   0  0  0  0  0  0  0  0  0  0  0  0
    0.0000    0.0000    0.0000 C   0  0  0  0  0  0  0  0  0  0  0  0
    0.0000    0.0000    0.0000 C   0  0  0  0  0  0  0  0  0  0  0  0
    0.0000    0.0000    0.0000 N   0  0  0  0  0  0  0  0  0  0  0  0
    0.0000    0.0000    0.0000 C   0  0  0  0  0  0  0  0  0  0  0  0
    0.0000    0.0000    0.0000 C   0  0  0  0  0  0  0  0  0  0  0  0
    0.0000    0.0000    0.0000 C   0  0  0  0  0  0  0  0  0  0  0  0
    0.0000    0.0000    0.0000 C   0  0  0  0  0  0  0  0  0  0  0  0
    0.0000    0.0000    0.0000 C   0  0  0  0  0  0  0  0  0  0  0  0
    0.0000    0.0000    0.0000 C   0  0  0  0  0  0  0  0  0  0  0  0
    0.0000    0.0000    0.0000 C   0  0  0  0  0  0  0  0  0  0  0  0
    0.0000    0.0000    0.0000 O   0  0  0  0  0  0  0  0  0  0  0  0
    0.0000    0.0000    0.0000 N   0  0  0  0  0  0  0  0  0  0  0  0
    0.0000    0.0000    0.0000 C   0  0  0  0  0  0  0  0  0  0  0  0
    0.0000    0.0000    0.0000 C   0  0  0  0  0  0  0  0  0  0  0  0
    0.0000    0.0000    0.0000 C   0  0  0  0  0  0  0  0  0  0  0  0
    0.0000    0.0000    0.0000 C   0  0  0  0  0  0  0  0  0  0  0  0
    0.0000    0.0000    0.0000 C   0  0  0  0  0  0  0  0  0  0  0  0
    0.0000    0.0000    0.0000 C   0  0  0  0  0  0  0  0  0  0  0  0
    0.0000    0.0000    0.0000 C   0  0  0  0  0  0  0  0  0  0  0  0
    0.0000    0.0000    0.0000 C   0  0  0  0  0  0  0  0  0  0  0  0
    0.0000    0.0000    0.0000 F   0  0  0  0  0  0  0  0  0  0  0  0
    0.0000    0.0000    0.0000 F   0  0  0  0  0  0  0  0  0  0  0  0
    0.0000    0.0000    0.0000 F   0  0  0  0  0  0  0  0  0  0  0  0
    0.0000    0.0000    0.0000 C   0  0  0  0  0  0  0  0  0  0  0  0
    0.0000    0.0000    0.0000 F   0  0  0  0  0  0  0  0  0  0  0  0
    0.0000    0.0000    0.0000 F   0  0  0  0  0  0  0  0  0  0  0  0
    0.0000    0.0000    0.0000 F   0  0  0  0  0  0  0  0  0  0  0  0
  1  2  1  0
  2  3  1  0
  2  4  1  0
  4  5  1  0
  5  6  1  0
  6  7  1  0
  7  8  2  0
  7  9  1  0
  9 10  1  0
 10 11  1  0
 11 12  1  0
 12 13  1  0
 13 14  1  0
 14 15  2  0
 14 16  1  0
 16 17  1  0
 17 18  1  0
 18 19  2  0
 19 20  1  0
 20 21  2  0
 21 22  1  0
 21 23  1  0
 23 24  2  0
 16 25  1  0
 25 26  1  0
 26 27  2  0
 26 28  1  0
 28 29  1  0
 29 30  1  0
 30 31  2  0
 30 32  1  0
 32 33  1  0
 32 34  1  0
 34 35  1  0
 35 36  2  0
 35 37  1  0
 37 38  1  0
 37 39  1  0
 39 40  1  0
 40 41  2  0
 41 42  1  0
 41 43  1  0
 43 44  2  0
 44 45  1  0
 44 46  1  0
 46 47  2  0
 47 48  1  0
  5 49  1  0
 49 50  2  0
 49 51  1  0
 51 52  1  0
 52 53  1  0
 53 54  1  0
 54 55  2  0
 55 56  1  0
 56 57  1  0
 57 58  2  0
 58 59  1  0
 59 60  2  0
 60 61  1  0
 61 62  2  0
 52 63  1  0
 63 64  2  0
 63 65  1  0
 65 66  1  0
 66 67  1  0
 67 68  2  0
 68 69  1  0
 69 70  2  0
 70 71  1  0
 71 72  2  0
 71 73  1  0
 73 74  1  0
 73 75  1  0
 73 76  1  0
 69 77  1  0
 77 78  1  0
 77 79  1  0
 77 80  1  0
 13  9  1  0
 24 18  1  0
 47 40  1  0
 62 54  1  0
 62 57  1  0
 72 67  1  0
M  END
>  <pIC50>  (820) 
7.88

>  <ChEMBL_ID>  (820) 
CHEMBL3734889

>  <document_journal>  (820) 
J. Med. Chem.

>  <bao_endpoint>  (820) 
BAO_0000190

>  <potential_duplicate>  (820) 
None

>  <uo_units>  (820) 
UO_0000065

>  <canonical_smiles>  (820) 
CC(C)C[C@H](NC(=O)[C@@H]1CCCN1C(=O)[C@H](Cc2ccc(I)cc2)NC(=O)CNC(=O)[C@@H](C)NC(=O)[C@@H](N)Cc3c(C)cc(O)cc3C)C(=O)N[C@@H](Cc4c[nH]c5ccccc45)C(=O)NCc6cc(cc(c6)C(F)(F)F)C(F)(F)F

>  <parent_molecule_chembl_id>  (820) 
CHEMBL3734889

>  <assay_type>  (820) 
B

>  <src_id>  (820) 
1

>  <ligand_efficiency>  (820) 
None

>  <standard_flag>  (820) 
True

>  <molecule_chembl_id>  (820) 
CHEMBL3734889

>  <target_organism>  (820) 
Homo sapiens

>  <standard_units>  (820) 
nM

>  <record_id>  (820) 
2736461

>  <document_chembl_id>  (820) 
CHEMBL3734657

>  <bao_format>  (820) 
None

>  <data_validity_description>  (820) 
None

>  <activity_id>  (820) 
16392792

>  <standard_type>  (820) 
IC50

>  <target_chembl_id>  (820) 
CHEMBL233

>  <data_validity_comment>  (820) 
None

>  <published_value>  (820) 
7.88

>  <document_year>  (820) 
2015

>  <target_pref_name>  (820) 
Mu opioid receptor

>  <assay_chembl_id>  (820) 
CHEMBL3738443

>  <standard_relation>  (820) 
=

>  <assay_description>  (820) 
Binding affinity to mu opioid receptor (unknown origin)

>  <published_relation>  (820) 
=

>  <standard_value>  (820) 
13.18

>  <qudt_units>  (820) 
http://www.openphacts.org/units/Nanomolar

>  <target_tax_id>  (820) 
9606

>  <bao_label>  (820) 
None

>  <published_units>  (820) 
None

>  <pchembl_value>  (820) 
7.88

>  <published_type>  (820) 
pIC50

>  <activity_comment>  (820) 
None

$$$$

     RDKit          

 78 83  0  0  0  0  0  0  0  0999 V2000
    0.0000    0.0000    0.0000 C   0  0  0  0  0  0  0  0  0  0  0  0
    0.0000    0.0000    0.0000 C   0  0  0  0  0  0  0  0  0  0  0  0
    0.0000    0.0000    0.0000 C   0  0  0  0  0  0  0  0  0  0  0  0
    0.0000    0.0000    0.0000 C   0  0  0  0  0  0  0  0  0  0  0  0
    0.0000    0.0000    0.0000 C   0  0  0  0  0  0  0  0  0  0  0  0
    0.0000    0.0000    0.0000 N   0  0  0  0  0  0  0  0  0  0  0  0
    0.0000    0.0000    0.0000 C   0  0  0  0  0  0  0  0  0  0  0  0
    0.0000    0.0000    0.0000 O   0  0  0  0  0  0  0  0  0  0  0  0
    0.0000    0.0000    0.0000 C   0  0  0  0  0  0  0  0  0  0  0  0
    0.0000    0.0000    0.0000 C   0  0  0  0  0  0  0  0  0  0  0  0
    0.0000    0.0000    0.0000 C   0  0  0  0  0  0  0  0  0  0  0  0
    0.0000    0.0000    0.0000 C   0  0  0  0  0  0  0  0  0  0  0  0
    0.0000    0.0000    0.0000 N   0  0  0  0  0  0  0  0  0  0  0  0
    0.0000    0.0000    0.0000 C   0  0  0  0  0  0  0  0  0  0  0  0
    0.0000    0.0000    0.0000 O   0  0  0  0  0  0  0  0  0  0  0  0
    0.0000    0.0000    0.0000 C   0  0  0  0  0  0  0  0  0  0  0  0
    0.0000    0.0000    0.0000 C   0  0  0  0  0  0  0  0  0  0  0  0
    0.0000    0.0000    0.0000 C   0  0  0  0  0  0  0  0  0  0  0  0
    0.0000    0.0000    0.0000 C   0  0  0  0  0  0  0  0  0  0  0  0
    0.0000    0.0000    0.0000 C   0  0  0  0  0  0  0  0  0  0  0  0
    0.0000    0.0000    0.0000 C   0  0  0  0  0  0  0  0  0  0  0  0
    0.0000    0.0000    0.0000 C   0  0  0  0  0  0  0  0  0  0  0  0
    0.0000    0.0000    0.0000 C   0  0  0  0  0  0  0  0  0  0  0  0
    0.0000    0.0000    0.0000 N   0  0  0  0  0  0  0  0  0  0  0  0
    0.0000    0.0000    0.0000 C   0  0  0  0  0  0  0  0  0  0  0  0
    0.0000    0.0000    0.0000 C   0  0  0  0  0  0  0  0  0  0  0  0
    0.0000    0.0000    0.0000 O   0  0  0  0  0  0  0  0  0  0  0  0
    0.0000    0.0000    0.0000 C   0  0  0  0  0  0  0  0  0  0  0  0
    0.0000    0.0000    0.0000 N   0  0  0  0  0  0  0  0  0  0  0  0
    0.0000    0.0000    0.0000 C   0  0  0  0  0  0  0  0  0  0  0  0
    0.0000    0.0000    0.0000 O   0  0  0  0  0  0  0  0  0  0  0  0
    0.0000    0.0000    0.0000 C   0  0  0  0  0  0  0  0  0  0  0  0
    0.0000    0.0000    0.0000 C   0  0  0  0  0  0  0  0  0  0  0  0
    0.0000    0.0000    0.0000 N   0  0  0  0  0  0  0  0  0  0  0  0
    0.0000    0.0000    0.0000 C   0  0  0  0  0  0  0  0  0  0  0  0
    0.0000    0.0000    0.0000 O   0  0  0  0  0  0  0  0  0  0  0  0
    0.0000    0.0000    0.0000 C   0  0  0  0  0  0  0  0  0  0  0  0
    0.0000    0.0000    0.0000 N   0  0  0  0  0  0  0  0  0  0  0  0
    0.0000    0.0000    0.0000 C   0  0  0  0  0  0  0  0  0  0  0  0
    0.0000    0.0000    0.0000 C   0  0  0  0  0  0  0  0  0  0  0  0
    0.0000    0.0000    0.0000 C   0  0  0  0  0  0  0  0  0  0  0  0
    0.0000    0.0000    0.0000 C   0  0  0  0  0  0  0  0  0  0  0  0
    0.0000    0.0000    0.0000 C   0  0  0  0  0  0  0  0  0  0  0  0
    0.0000    0.0000    0.0000 O   0  0  0  0  0  0  0  0  0  0  0  0
    0.0000    0.0000    0.0000 C   0  0  0  0  0  0  0  0  0  0  0  0
    0.0000    0.0000    0.0000 C   0  0  0  0  0  0  0  0  0  0  0  0
    0.0000    0.0000    0.0000 C   0  0  0  0  0  0  0  0  0  0  0  0
    0.0000    0.0000    0.0000 O   0  0  0  0  0  0  0  0  0  0  0  0
    0.0000    0.0000    0.0000 N   0  0  0  0  0  0  0  0  0  0  0  0
    0.0000    0.0000    0.0000 C   0  0  0  0  0  0  0  0  0  0  0  0
    0.0000    0.0000    0.0000 C   0  0  0  0  0  0  0  0  0  0  0  0
    0.0000    0.0000    0.0000 C   0  0  0  0  0  0  0  0  0  0  0  0
    0.0000    0.0000    0.0000 C   0  0  0  0  0  0  0  0  0  0  0  0
    0.0000    0.0000    0.0000 N   0  0  0  0  0  0  0  0  0  0  0  0
    0.0000    0.0000    0.0000 C   0  0  0  0  0  0  0  0  0  0  0  0
    0.0000    0.0000    0.0000 C   0  0  0  0  0  0  0  0  0  0  0  0
    0.0000    0.0000    0.0000 C   0  0  0  0  0  0  0  0  0  0  0  0
    0.0000    0.0000    0.0000 C   0  0  0  0  0  0  0  0  0  0  0  0
    0.0000    0.0000    0.0000 C   0  0  0  0  0  0  0  0  0  0  0  0
    0.0000    0.0000    0.0000 C   0  0  0  0  0  0  0  0  0  0  0  0
    0.0000    0.0000    0.0000 C   0  0  0  0  0  0  0  0  0  0  0  0
    0.0000    0.0000    0.0000 O   0  0  0  0  0  0  0  0  0  0  0  0
    0.0000    0.0000    0.0000 N   0  0  0  0  0  0  0  0  0  0  0  0
    0.0000    0.0000    0.0000 C   0  0  0  0  0  0  0  0  0  0  0  0
    0.0000    0.0000    0.0000 C   0  0  0  0  0  0  0  0  0  0  0  0
    0.0000    0.0000    0.0000 C   0  0  0  0  0  0  0  0  0  0  0  0
    0.0000    0.0000    0.0000 C   0  0  0  0  0  0  0  0  0  0  0  0
    0.0000    0.0000    0.0000 C   0  0  0  0  0  0  0  0  0  0  0  0
    0.0000    0.0000    0.0000 C   0  0  0  0  0  0  0  0  0  0  0  0
    0.0000    0.0000    0.0000 C   0  0  0  0  0  0  0  0  0  0  0  0
    0.0000    0.0000    0.0000 C   0  0  0  0  0  0  0  0  0  0  0  0
    0.0000    0.0000    0.0000 F   0  0  0  0  0  0  0  0  0  0  0  0
    0.0000    0.0000    0.0000 F   0  0  0  0  0  0  0  0  0  0  0  0
    0.0000    0.0000    0.0000 F   0  0  0  0  0  0  0  0  0  0  0  0
    0.0000    0.0000    0.0000 C   0  0  0  0  0  0  0  0  0  0  0  0
    0.0000    0.0000    0.0000 F   0  0  0  0  0  0  0  0  0  0  0  0
    0.0000    0.0000    0.0000 F   0  0  0  0  0  0  0  0  0  0  0  0
    0.0000    0.0000    0.0000 F   0  0  0  0  0  0  0  0  0  0  0  0
  1  2  1  0
  2  3  1  0
  2  4  1  0
  4  5  1  0
  5  6  1  0
  6  7  1  0
  7  8  2  0
  7  9  1  0
  9 10  1  0
 10 11  1  0
 11 12  1  0
 12 13  1  0
 13 14  1  0
 14 15  2  0
 14 16  1  0
 16 17  1  0
 17 18  1  0
 18 19  2  0
 19 20  1  0
 20 21  2  0
 21 22  1  0
 22 23  2  0
 16 24  1  0
 24 25  1  0
 24 26  1  0
 26 27  2  0
 26 28  1  0
 28 29  1  0
 29 30  1  0
 30 31  2  0
 30 32  1  0
 32 33  1  0
 32 34  1  0
 34 35  1  0
 35 36  2  0
 35 37  1  0
 37 38  1  0
 37 39  1  0
 39 40  1  0
 40 41  2  0
 41 42  1  0
 42 43  2  0
 43 44  1  0
 43 45  1  0
 45 46  2  0
  5 47  1  0
 47 48  2  0
 47 49  1  0
 49 50  1  0
 50 51  1  0
 51 52  1  0
 52 53  2  0
 53 54  1  0
 54 55  1  0
 55 56  2  0
 56 57  1  0
 57 58  2  0
 58 59  1  0
 59 60  2  0
 50 61  1  0
 61 62  2  0
 61 63  1  0
 63 64  1  0
 64 65  1  0
 65 66  2  0
 66 67  1  0
 67 68  2  0
 68 69  1  0
 69 70  2  0
 69 71  1  0
 71 72  1  0
 71 73  1  0
 71 74  1  0
 67 75  1  0
 75 76  1  0
 75 77  1  0
 75 78  1  0
 13  9  1  0
 23 18  1  0
 46 40  1  0
 60 52  1  0
 60 55  1  0
 70 65  1  0
M  END
>  <pIC50>  (821) 
7.05

>  <ChEMBL_ID>  (821) 
CHEMBL3736285

>  <document_journal>  (821) 
J. Med. Chem.

>  <bao_endpoint>  (821) 
BAO_0000190

>  <potential_duplicate>  (821) 
None

>  <uo_units>  (821) 
UO_0000065

>  <canonical_smiles>  (821) 
CC(C)C[C@H](NC(=O)[C@@H]1CCCN1C(=O)[C@H](Cc2ccccc2)N(C)C(=O)CNC(=O)[C@@H](C)NC(=O)[C@@H](N)Cc3ccc(O)cc3)C(=O)N[C@@H](Cc4c[nH]c5ccccc45)C(=O)NCc6cc(cc(c6)C(F)(F)F)C(F)(F)F

>  <parent_molecule_chembl_id>  (821) 
CHEMBL3736285

>  <assay_type>  (821) 
B

>  <src_id>  (821) 
1

>  <ligand_efficiency>  (821) 
None

>  <standard_flag>  (821) 
True

>  <molecule_chembl_id>  (821) 
CHEMBL3736285

>  <target_organism>  (821) 
Homo sapiens

>  <standard_units>  (821) 
nM

>  <record_id>  (821) 
2736453

>  <document_chembl_id>  (821) 
CHEMBL3734657

>  <bao_format>  (821) 
None

>  <data_validity_description>  (821) 
None

>  <activity_id>  (821) 
16392794

>  <standard_type>  (821) 
IC50

>  <target_chembl_id>  (821) 
CHEMBL233

>  <data_validity_comment>  (821) 
None

>  <published_value>  (821) 
7.05

>  <document_year>  (821) 
2015

>  <target_pref_name>  (821) 
Mu opioid receptor

>  <assay_chembl_id>  (821) 
CHEMBL3738443

>  <standard_relation>  (821) 
=

>  <assay_description>  (821) 
Binding affinity to mu opioid receptor (unknown origin)

>  <published_relation>  (821) 
=

>  <standard_value>  (821) 
89.13

>  <qudt_units>  (821) 
http://www.openphacts.org/units/Nanomolar

>  <target_tax_id>  (821) 
9606

>  <bao_label>  (821) 
None

>  <published_units>  (821) 
None

>  <pchembl_value>  (821) 
7.05

>  <published_type>  (821) 
pIC50

>  <activity_comment>  (821) 
None

$$$$

     RDKit          

 80 85  0  0  0  0  0  0  0  0999 V2000
    0.0000    0.0000    0.0000 C   0  0  0  0  0  0  0  0  0  0  0  0
    0.0000    0.0000    0.0000 C   0  0  0  0  0  0  0  0  0  0  0  0
    0.0000    0.0000    0.0000 C   0  0  0  0  0  0  0  0  0  0  0  0
    0.0000    0.0000    0.0000 C   0  0  0  0  0  0  0  0  0  0  0  0
    0.0000    0.0000    0.0000 C   0  0  0  0  0  0  0  0  0  0  0  0
    0.0000    0.0000    0.0000 N   0  0  0  0  0  0  0  0  0  0  0  0
    0.0000    0.0000    0.0000 C   0  0  0  0  0  0  0  0  0  0  0  0
    0.0000    0.0000    0.0000 O   0  0  0  0  0  0  0  0  0  0  0  0
    0.0000    0.0000    0.0000 C   0  0  0  0  0  0  0  0  0  0  0  0
    0.0000    0.0000    0.0000 C   0  0  0  0  0  0  0  0  0  0  0  0
    0.0000    0.0000    0.0000 C   0  0  0  0  0  0  0  0  0  0  0  0
    0.0000    0.0000    0.0000 C   0  0  0  0  0  0  0  0  0  0  0  0
    0.0000    0.0000    0.0000 N   0  0  0  0  0  0  0  0  0  0  0  0
    0.0000    0.0000    0.0000 C   0  0  0  0  0  0  0  0  0  0  0  0
    0.0000    0.0000    0.0000 O   0  0  0  0  0  0  0  0  0  0  0  0
    0.0000    0.0000    0.0000 C   0  0  0  0  0  0  0  0  0  0  0  0
    0.0000    0.0000    0.0000 C   0  0  0  0  0  0  0  0  0  0  0  0
    0.0000    0.0000    0.0000 C   0  0  0  0  0  0  0  0  0  0  0  0
    0.0000    0.0000    0.0000 C   0  0  0  0  0  0  0  0  0  0  0  0
    0.0000    0.0000    0.0000 C   0  0  0  0  0  0  0  0  0  0  0  0
    0.0000    0.0000    0.0000 C   0  0  0  0  0  0  0  0  0  0  0  0
    0.0000    0.0000    0.0000 C   0  0  0  0  0  0  0  0  0  0  0  0
    0.0000    0.0000    0.0000 C   0  0  0  0  0  0  0  0  0  0  0  0
    0.0000    0.0000    0.0000 N   0  0  0  0  0  0  0  0  0  0  0  0
    0.0000    0.0000    0.0000 C   0  0  0  0  0  0  0  0  0  0  0  0
    0.0000    0.0000    0.0000 C   0  0  0  0  0  0  0  0  0  0  0  0
    0.0000    0.0000    0.0000 O   0  0  0  0  0  0  0  0  0  0  0  0
    0.0000    0.0000    0.0000 C   0  0  0  0  0  0  0  0  0  0  0  0
    0.0000    0.0000    0.0000 N   0  0  0  0  0  0  0  0  0  0  0  0
    0.0000    0.0000    0.0000 C   0  0  0  0  0  0  0  0  0  0  0  0
    0.0000    0.0000    0.0000 O   0  0  0  0  0  0  0  0  0  0  0  0
    0.0000    0.0000    0.0000 C   0  0  0  0  0  0  0  0  0  0  0  0
    0.0000    0.0000    0.0000 C   0  0  0  0  0  0  0  0  0  0  0  0
    0.0000    0.0000    0.0000 N   0  0  0  0  0  0  0  0  0  0  0  0
    0.0000    0.0000    0.0000 C   0  0  0  0  0  0  0  0  0  0  0  0
    0.0000    0.0000    0.0000 O   0  0  0  0  0  0  0  0  0  0  0  0
    0.0000    0.0000    0.0000 C   0  0  0  0  0  0  0  0  0  0  0  0
    0.0000    0.0000    0.0000 N   0  0  0  0  0  0  0  0  0  0  0  0
    0.0000    0.0000    0.0000 C   0  0  0  0  0  0  0  0  0  0  0  0
    0.0000    0.0000    0.0000 C   0  0  0  0  0  0  0  0  0  0  0  0
    0.0000    0.0000    0.0000 C   0  0  0  0  0  0  0  0  0  0  0  0
    0.0000    0.0000    0.0000 C   0  0  0  0  0  0  0  0  0  0  0  0
    0.0000    0.0000    0.0000 C   0  0  0  0  0  0  0  0  0  0  0  0
    0.0000    0.0000    0.0000 C   0  0  0  0  0  0  0  0  0  0  0  0
    0.0000    0.0000    0.0000 O   0  0  0  0  0  0  0  0  0  0  0  0
    0.0000    0.0000    0.0000 C   0  0  0  0  0  0  0  0  0  0  0  0
    0.0000    0.0000    0.0000 C   0  0  0  0  0  0  0  0  0  0  0  0
    0.0000    0.0000    0.0000 C   0  0  0  0  0  0  0  0  0  0  0  0
    0.0000    0.0000    0.0000 C   0  0  0  0  0  0  0  0  0  0  0  0
    0.0000    0.0000    0.0000 O   0  0  0  0  0  0  0  0  0  0  0  0
    0.0000    0.0000    0.0000 N   0  0  0  0  0  0  0  0  0  0  0  0
    0.0000    0.0000    0.0000 C   0  0  0  0  0  0  0  0  0  0  0  0
    0.0000    0.0000    0.0000 C   0  0  0  0  0  0  0  0  0  0  0  0
    0.0000    0.0000    0.0000 C   0  0  0  0  0  0  0  0  0  0  0  0
    0.0000    0.0000    0.0000 C   0  0  0  0  0  0  0  0  0  0  0  0
    0.0000    0.0000    0.0000 N   0  0  0  0  0  0  0  0  0  0  0  0
    0.0000    0.0000    0.0000 C   0  0  0  0  0  0  0  0  0  0  0  0
    0.0000    0.0000    0.0000 C   0  0  0  0  0  0  0  0  0  0  0  0
    0.0000    0.0000    0.0000 C   0  0  0  0  0  0  0  0  0  0  0  0
    0.0000    0.0000    0.0000 C   0  0  0  0  0  0  0  0  0  0  0  0
    0.0000    0.0000    0.0000 C   0  0  0  0  0  0  0  0  0  0  0  0
    0.0000    0.0000    0.0000 C   0  0  0  0  0  0  0  0  0  0  0  0
    0.0000    0.0000    0.0000 C   0  0  0  0  0  0  0  0  0  0  0  0
    0.0000    0.0000    0.0000 O   0  0  0  0  0  0  0  0  0  0  0  0
    0.0000    0.0000    0.0000 N   0  0  0  0  0  0  0  0  0  0  0  0
    0.0000    0.0000    0.0000 C   0  0  0  0  0  0  0  0  0  0  0  0
    0.0000    0.0000    0.0000 C   0  0  0  0  0  0  0  0  0  0  0  0
    0.0000    0.0000    0.0000 C   0  0  0  0  0  0  0  0  0  0  0  0
    0.0000    0.0000    0.0000 C   0  0  0  0  0  0  0  0  0  0  0  0
    0.0000    0.0000    0.0000 C   0  0  0  0  0  0  0  0  0  0  0  0
    0.0000    0.0000    0.0000 C   0  0  0  0  0  0  0  0  0  0  0  0
    0.0000    0.0000    0.0000 C   0  0  0  0  0  0  0  0  0  0  0  0
    0.0000    0.0000    0.0000 C   0  0  0  0  0  0  0  0  0  0  0  0
    0.0000    0.0000    0.0000 F   0  0  0  0  0  0  0  0  0  0  0  0
    0.0000    0.0000    0.0000 F   0  0  0  0  0  0  0  0  0  0  0  0
    0.0000    0.0000    0.0000 F   0  0  0  0  0  0  0  0  0  0  0  0
    0.0000    0.0000    0.0000 C   0  0  0  0  0  0  0  0  0  0  0  0
    0.0000    0.0000    0.0000 F   0  0  0  0  0  0  0  0  0  0  0  0
    0.0000    0.0000    0.0000 F   0  0  0  0  0  0  0  0  0  0  0  0
    0.0000    0.0000    0.0000 F   0  0  0  0  0  0  0  0  0  0  0  0
  1  2  1  0
  2  3  1  0
  2  4  1  0
  4  5  1  0
  5  6  1  0
  6  7  1  0
  7  8  2  0
  7  9  1  0
  9 10  1  0
 10 11  1  0
 11 12  1  0
 12 13  1  0
 13 14  1  0
 14 15  2  0
 14 16  1  0
 16 17  1  0
 17 18  1  0
 18 19  2  0
 19 20  1  0
 20 21  2  0
 21 22  1  0
 22 23  2  0
 16 24  1  0
 24 25  1  0
 24 26  1  0
 26 27  2  0
 26 28  1  0
 28 29  1  0
 29 30  1  0
 30 31  2  0
 30 32  1  0
 32 33  1  0
 32 34  1  0
 34 35  1  0
 35 36  2  0
 35 37  1  0
 37 38  1  0
 37 39  1  0
 39 40  1  0
 40 41  2  0
 41 42  1  0
 41 43  1  0
 43 44  2  0
 44 45  1  0
 44 46  1  0
 46 47  2  0
 47 48  1  0
  5 49  1  0
 49 50  2  0
 49 51  1  0
 51 52  1  0
 52 53  1  0
 53 54  1  0
 54 55  2  0
 55 56  1  0
 56 57  1  0
 57 58  2  0
 58 59  1  0
 59 60  2  0
 60 61  1  0
 61 62  2  0
 52 63  1  0
 63 64  2  0
 63 65  1  0
 65 66  1  0
 66 67  1  0
 67 68  2  0
 68 69  1  0
 69 70  2  0
 70 71  1  0
 71 72  2  0
 71 73  1  0
 73 74  1  0
 73 75  1  0
 73 76  1  0
 69 77  1  0
 77 78  1  0
 77 79  1  0
 77 80  1  0
 13  9  1  0
 23 18  1  0
 47 40  1  0
 62 54  1  0
 62 57  1  0
 72 67  1  0
M  END
>  <pIC50>  (822) 
8.095

>  <ChEMBL_ID>  (822) 
CHEMBL3736287

>  <document_journal>  (822) 
J. Med. Chem.

>  <bao_endpoint>  (822) 
BAO_0000190

>  <potential_duplicate>  (822) 
None

>  <uo_units>  (822) 
UO_0000065

>  <canonical_smiles>  (822) 
CC(C)C[C@H](NC(=O)[C@@H]1CCCN1C(=O)[C@H](Cc2ccccc2)N(C)C(=O)CNC(=O)[C@@H](C)NC(=O)[C@@H](N)Cc3c(C)cc(O)cc3C)C(=O)N[C@@H](Cc4c[nH]c5ccccc45)C(=O)NCc6cc(cc(c6)C(F)(F)F)C(F)(F)F

>  <parent_molecule_chembl_id>  (822) 
CHEMBL3736287

>  <assay_type>  (822) 
B

>  <src_id>  (822) 
1

>  <ligand_efficiency>  (822) 
None

>  <standard_flag>  (822) 
True

>  <molecule_chembl_id>  (822) 
CHEMBL3736287

>  <target_organism>  (822) 
Homo sapiens

>  <standard_units>  (822) 
nM

>  <record_id>  (822) 
2736454

>  <document_chembl_id>  (822) 
CHEMBL3734657

>  <bao_format>  (822) 
None

>  <data_validity_description>  (822) 
None

>  <activity_id>  (822) 
16392796

>  <standard_type>  (822) 
IC50

>  <target_chembl_id>  (822) 
CHEMBL233

>  <data_validity_comment>  (822) 
None

>  <published_value>  (822) 
8.78

>  <document_year>  (822) 
2015

>  <target_pref_name>  (822) 
Mu opioid receptor

>  <assay_chembl_id>  (822) 
CHEMBL3738443

>  <standard_relation>  (822) 
=

>  <assay_description>  (822) 
Binding affinity to mu opioid receptor (unknown origin)

>  <published_relation>  (822) 
=

>  <standard_value>  (822) 
1.66

>  <qudt_units>  (822) 
http://www.openphacts.org/units/Nanomolar

>  <target_tax_id>  (822) 
9606

>  <bao_label>  (822) 
None

>  <published_units>  (822) 
None

>  <pchembl_value>  (822) 
8.78

>  <published_type>  (822) 
pIC50

>  <activity_comment>  (822) 
None

$$$$

     RDKit          

 79 84  0  0  0  0  0  0  0  0999 V2000
    0.0000    0.0000    0.0000 C   0  0  0  0  0  0  0  0  0  0  0  0
    0.0000    0.0000    0.0000 C   0  0  0  0  0  0  0  0  0  0  0  0
    0.0000    0.0000    0.0000 C   0  0  0  0  0  0  0  0  0  0  0  0
    0.0000    0.0000    0.0000 C   0  0  0  0  0  0  0  0  0  0  0  0
    0.0000    0.0000    0.0000 C   0  0  0  0  0  0  0  0  0  0  0  0
    0.0000    0.0000    0.0000 N   0  0  0  0  0  0  0  0  0  0  0  0
    0.0000    0.0000    0.0000 C   0  0  0  0  0  0  0  0  0  0  0  0
    0.0000    0.0000    0.0000 O   0  0  0  0  0  0  0  0  0  0  0  0
    0.0000    0.0000    0.0000 C   0  0  0  0  0  0  0  0  0  0  0  0
    0.0000    0.0000    0.0000 C   0  0  0  0  0  0  0  0  0  0  0  0
    0.0000    0.0000    0.0000 C   0  0  0  0  0  0  0  0  0  0  0  0
    0.0000    0.0000    0.0000 C   0  0  0  0  0  0  0  0  0  0  0  0
    0.0000    0.0000    0.0000 N   0  0  0  0  0  0  0  0  0  0  0  0
    0.0000    0.0000    0.0000 C   0  0  0  0  0  0  0  0  0  0  0  0
    0.0000    0.0000    0.0000 O   0  0  0  0  0  0  0  0  0  0  0  0
    0.0000    0.0000    0.0000 C   0  0  0  0  0  0  0  0  0  0  0  0
    0.0000    0.0000    0.0000 C   0  0  0  0  0  0  0  0  0  0  0  0
    0.0000    0.0000    0.0000 C   0  0  0  0  0  0  0  0  0  0  0  0
    0.0000    0.0000    0.0000 C   0  0  0  0  0  0  0  0  0  0  0  0
    0.0000    0.0000    0.0000 C   0  0  0  0  0  0  0  0  0  0  0  0
    0.0000    0.0000    0.0000 C   0  0  0  0  0  0  0  0  0  0  0  0
    0.0000    0.0000    0.0000 C   0  0  0  0  0  0  0  0  0  0  0  0
    0.0000    0.0000    0.0000 C   0  0  0  0  0  0  0  0  0  0  0  0
    0.0000    0.0000    0.0000 N   0  0  0  0  0  0  0  0  0  0  0  0
    0.0000    0.0000    0.0000 C   0  0  0  0  0  0  0  0  0  0  0  0
    0.0000    0.0000    0.0000 O   0  0  0  0  0  0  0  0  0  0  0  0
    0.0000    0.0000    0.0000 C   0  0  0  0  0  0  0  0  0  0  0  0
    0.0000    0.0000    0.0000 N   0  0  0  0  0  0  0  0  0  0  0  0
    0.0000    0.0000    0.0000 C   0  0  0  0  0  0  0  0  0  0  0  0
    0.0000    0.0000    0.0000 O   0  0  0  0  0  0  0  0  0  0  0  0
    0.0000    0.0000    0.0000 C   0  0  0  0  0  0  0  0  0  0  0  0
    0.0000    0.0000    0.0000 C   0  0  0  0  0  0  0  0  0  0  0  0
    0.0000    0.0000    0.0000 N   0  0  0  0  0  0  0  0  0  0  0  0
    0.0000    0.0000    0.0000 C   0  0  0  0  0  0  0  0  0  0  0  0
    0.0000    0.0000    0.0000 O   0  0  0  0  0  0  0  0  0  0  0  0
    0.0000    0.0000    0.0000 C   0  0  0  0  0  0  0  0  0  0  0  0
    0.0000    0.0000    0.0000 N   0  0  0  0  0  0  0  0  0  0  0  0
    0.0000    0.0000    0.0000 C   0  0  0  0  0  0  0  0  0  0  0  0
    0.0000    0.0000    0.0000 C   0  0  0  0  0  0  0  0  0  0  0  0
    0.0000    0.0000    0.0000 C   0  0  0  0  0  0  0  0  0  0  0  0
    0.0000    0.0000    0.0000 C   0  0  0  0  0  0  0  0  0  0  0  0
    0.0000    0.0000    0.0000 C   0  0  0  0  0  0  0  0  0  0  0  0
    0.0000    0.0000    0.0000 C   0  0  0  0  0  0  0  0  0  0  0  0
    0.0000    0.0000    0.0000 O   0  0  0  0  0  0  0  0  0  0  0  0
    0.0000    0.0000    0.0000 C   0  0  0  0  0  0  0  0  0  0  0  0
    0.0000    0.0000    0.0000 C   0  0  0  0  0  0  0  0  0  0  0  0
    0.0000    0.0000    0.0000 C   0  0  0  0  0  0  0  0  0  0  0  0
    0.0000    0.0000    0.0000 C   0  0  0  0  0  0  0  0  0  0  0  0
    0.0000    0.0000    0.0000 O   0  0  0  0  0  0  0  0  0  0  0  0
    0.0000    0.0000    0.0000 N   0  0  0  0  0  0  0  0  0  0  0  0
    0.0000    0.0000    0.0000 C   0  0  0  0  0  0  0  0  0  0  0  0
    0.0000    0.0000    0.0000 C   0  0  0  0  0  0  0  0  0  0  0  0
    0.0000    0.0000    0.0000 C   0  0  0  0  0  0  0  0  0  0  0  0
    0.0000    0.0000    0.0000 C   0  0  0  0  0  0  0  0  0  0  0  0
    0.0000    0.0000    0.0000 N   0  0  0  0  0  0  0  0  0  0  0  0
    0.0000    0.0000    0.0000 C   0  0  0  0  0  0  0  0  0  0  0  0
    0.0000    0.0000    0.0000 C   0  0  0  0  0  0  0  0  0  0  0  0
    0.0000    0.0000    0.0000 C   0  0  0  0  0  0  0  0  0  0  0  0
    0.0000    0.0000    0.0000 C   0  0  0  0  0  0  0  0  0  0  0  0
    0.0000    0.0000    0.0000 C   0  0  0  0  0  0  0  0  0  0  0  0
    0.0000    0.0000    0.0000 C   0  0  0  0  0  0  0  0  0  0  0  0
    0.0000    0.0000    0.0000 C   0  0  0  0  0  0  0  0  0  0  0  0
    0.0000    0.0000    0.0000 O   0  0  0  0  0  0  0  0  0  0  0  0
    0.0000    0.0000    0.0000 N   0  0  0  0  0  0  0  0  0  0  0  0
    0.0000    0.0000    0.0000 C   0  0  0  0  0  0  0  0  0  0  0  0
    0.0000    0.0000    0.0000 C   0  0  0  0  0  0  0  0  0  0  0  0
    0.0000    0.0000    0.0000 C   0  0  0  0  0  0  0  0  0  0  0  0
    0.0000    0.0000    0.0000 C   0  0  0  0  0  0  0  0  0  0  0  0
    0.0000    0.0000    0.0000 C   0  0  0  0  0  0  0  0  0  0  0  0
    0.0000    0.0000    0.0000 C   0  0  0  0  0  0  0  0  0  0  0  0
    0.0000    0.0000    0.0000 C   0  0  0  0  0  0  0  0  0  0  0  0
    0.0000    0.0000    0.0000 C   0  0  0  0  0  0  0  0  0  0  0  0
    0.0000    0.0000    0.0000 F   0  0  0  0  0  0  0  0  0  0  0  0
    0.0000    0.0000    0.0000 F   0  0  0  0  0  0  0  0  0  0  0  0
    0.0000    0.0000    0.0000 F   0  0  0  0  0  0  0  0  0  0  0  0
    0.0000    0.0000    0.0000 C   0  0  0  0  0  0  0  0  0  0  0  0
    0.0000    0.0000    0.0000 F   0  0  0  0  0  0  0  0  0  0  0  0
    0.0000    0.0000    0.0000 F   0  0  0  0  0  0  0  0  0  0  0  0
    0.0000    0.0000    0.0000 F   0  0  0  0  0  0  0  0  0  0  0  0
  1  2  1  0
  2  3  1  0
  2  4  1  0
  4  5  1  0
  5  6  1  0
  6  7  1  0
  7  8  2  0
  7  9  1  0
  9 10  1  0
 10 11  1  0
 11 12  1  0
 12 13  1  0
 13 14  1  0
 14 15  2  0
 14 16  1  0
 16 17  1  0
 17 18  1  0
 18 19  2  0
 19 20  1  0
 20 21  2  0
 21 22  1  0
 22 23  2  0
 16 24  1  0
 24 25  1  0
 25 26  2  0
 25 27  1  0
 27 28  1  0
 28 29  1  0
 29 30  2  0
 29 31  1  0
 31 32  1  0
 31 33  1  0
 33 34  1  0
 34 35  2  0
 34 36  1  0
 36 37  1  0
 36 38  1  0
 38 39  1  0
 39 40  2  0
 40 41  1  0
 40 42  1  0
 42 43  2  0
 43 44  1  0
 43 45  1  0
 45 46  2  0
 46 47  1  0
  5 48  1  0
 48 49  2  0
 48 50  1  0
 50 51  1  0
 51 52  1  0
 52 53  1  0
 53 54  2  0
 54 55  1  0
 55 56  1  0
 56 57  2  0
 57 58  1  0
 58 59  2  0
 59 60  1  0
 60 61  2  0
 51 62  1  0
 62 63  2  0
 62 64  1  0
 64 65  1  0
 65 66  1  0
 66 67  2  0
 67 68  1  0
 68 69  2  0
 69 70  1  0
 70 71  2  0
 70 72  1  0
 72 73  1  0
 72 74  1  0
 72 75  1  0
 68 76  1  0
 76 77  1  0
 76 78  1  0
 76 79  1  0
 13  9  1  0
 23 18  1  0
 46 39  1  0
 61 53  1  0
 61 56  1  0
 71 66  1  0
M  END
>  <pIC50>  (823) 
7.985

>  <ChEMBL_ID>  (823) 
CHEMBL3736364

>  <document_journal>  (823) 
J. Med. Chem.

>  <bao_endpoint>  (823) 
BAO_0000190

>  <potential_duplicate>  (823) 
None

>  <uo_units>  (823) 
UO_0000065

>  <canonical_smiles>  (823) 
CC(C)C[C@H](NC(=O)[C@@H]1CCCN1C(=O)[C@H](Cc2ccccc2)NC(=O)CNC(=O)[C@@H](C)NC(=O)[C@@H](N)Cc3c(C)cc(O)cc3C)C(=O)N[C@@H](Cc4c[nH]c5ccccc45)C(=O)NCc6cc(cc(c6)C(F)(F)F)C(F)(F)F

>  <parent_molecule_chembl_id>  (823) 
CHEMBL3736364

>  <assay_type>  (823) 
B

>  <src_id>  (823) 
1

>  <ligand_efficiency>  (823) 
None

>  <standard_flag>  (823) 
True

>  <molecule_chembl_id>  (823) 
CHEMBL3736364

>  <target_organism>  (823) 
Homo sapiens

>  <standard_units>  (823) 
nM

>  <record_id>  (823) 
2736455

>  <document_chembl_id>  (823) 
CHEMBL3734657

>  <bao_format>  (823) 
None

>  <data_validity_description>  (823) 
None

>  <activity_id>  (823) 
16392798

>  <standard_type>  (823) 
IC50

>  <target_chembl_id>  (823) 
CHEMBL233

>  <data_validity_comment>  (823) 
None

>  <published_value>  (823) 
8.63

>  <document_year>  (823) 
2015

>  <target_pref_name>  (823) 
Mu opioid receptor

>  <assay_chembl_id>  (823) 
CHEMBL3738443

>  <standard_relation>  (823) 
=

>  <assay_description>  (823) 
Binding affinity to mu opioid receptor (unknown origin)

>  <published_relation>  (823) 
=

>  <standard_value>  (823) 
2.344

>  <qudt_units>  (823) 
http://www.openphacts.org/units/Nanomolar

>  <target_tax_id>  (823) 
9606

>  <bao_label>  (823) 
None

>  <published_units>  (823) 
None

>  <pchembl_value>  (823) 
8.63

>  <published_type>  (823) 
pIC50

>  <activity_comment>  (823) 
None

$$$$

     RDKit          

 80 85  0  0  0  0  0  0  0  0999 V2000
    0.0000    0.0000    0.0000 C   0  0  0  0  0  0  0  0  0  0  0  0
    0.0000    0.0000    0.0000 C   0  0  0  0  0  0  0  0  0  0  0  0
    0.0000    0.0000    0.0000 C   0  0  0  0  0  0  0  0  0  0  0  0
    0.0000    0.0000    0.0000 C   0  0  0  0  0  0  0  0  0  0  0  0
    0.0000    0.0000    0.0000 C   0  0  0  0  0  0  0  0  0  0  0  0
    0.0000    0.0000    0.0000 N   0  0  0  0  0  0  0  0  0  0  0  0
    0.0000    0.0000    0.0000 C   0  0  0  0  0  0  0  0  0  0  0  0
    0.0000    0.0000    0.0000 O   0  0  0  0  0  0  0  0  0  0  0  0
    0.0000    0.0000    0.0000 C   0  0  0  0  0  0  0  0  0  0  0  0
    0.0000    0.0000    0.0000 C   0  0  0  0  0  0  0  0  0  0  0  0
    0.0000    0.0000    0.0000 C   0  0  0  0  0  0  0  0  0  0  0  0
    0.0000    0.0000    0.0000 C   0  0  0  0  0  0  0  0  0  0  0  0
    0.0000    0.0000    0.0000 N   0  0  0  0  0  0  0  0  0  0  0  0
    0.0000    0.0000    0.0000 C   0  0  0  0  0  0  0  0  0  0  0  0
    0.0000    0.0000    0.0000 O   0  0  0  0  0  0  0  0  0  0  0  0
    0.0000    0.0000    0.0000 C   0  0  0  0  0  0  0  0  0  0  0  0
    0.0000    0.0000    0.0000 C   0  0  0  0  0  0  0  0  0  0  0  0
    0.0000    0.0000    0.0000 C   0  0  0  0  0  0  0  0  0  0  0  0
    0.0000    0.0000    0.0000 C   0  0  0  0  0  0  0  0  0  0  0  0
    0.0000    0.0000    0.0000 C   0  0  0  0  0  0  0  0  0  0  0  0
    0.0000    0.0000    0.0000 C   0  0  0  0  0  0  0  0  0  0  0  0
    0.0000    0.0000    0.0000 F   0  0  0  0  0  0  0  0  0  0  0  0
    0.0000    0.0000    0.0000 C   0  0  0  0  0  0  0  0  0  0  0  0
    0.0000    0.0000    0.0000 C   0  0  0  0  0  0  0  0  0  0  0  0
    0.0000    0.0000    0.0000 N   0  0  0  0  0  0  0  0  0  0  0  0
    0.0000    0.0000    0.0000 C   0  0  0  0  0  0  0  0  0  0  0  0
    0.0000    0.0000    0.0000 O   0  0  0  0  0  0  0  0  0  0  0  0
    0.0000    0.0000    0.0000 C   0  0  0  0  0  0  0  0  0  0  0  0
    0.0000    0.0000    0.0000 N   0  0  0  0  0  0  0  0  0  0  0  0
    0.0000    0.0000    0.0000 C   0  0  0  0  0  0  0  0  0  0  0  0
    0.0000    0.0000    0.0000 O   0  0  0  0  0  0  0  0  0  0  0  0
    0.0000    0.0000    0.0000 C   0  0  0  0  0  0  0  0  0  0  0  0
    0.0000    0.0000    0.0000 C   0  0  0  0  0  0  0  0  0  0  0  0
    0.0000    0.0000    0.0000 N   0  0  0  0  0  0  0  0  0  0  0  0
    0.0000    0.0000    0.0000 C   0  0  0  0  0  0  0  0  0  0  0  0
    0.0000    0.0000    0.0000 O   0  0  0  0  0  0  0  0  0  0  0  0
    0.0000    0.0000    0.0000 C   0  0  0  0  0  0  0  0  0  0  0  0
    0.0000    0.0000    0.0000 N   0  0  0  0  0  0  0  0  0  0  0  0
    0.0000    0.0000    0.0000 C   0  0  0  0  0  0  0  0  0  0  0  0
    0.0000    0.0000    0.0000 C   0  0  0  0  0  0  0  0  0  0  0  0
    0.0000    0.0000    0.0000 C   0  0  0  0  0  0  0  0  0  0  0  0
    0.0000    0.0000    0.0000 C   0  0  0  0  0  0  0  0  0  0  0  0
    0.0000    0.0000    0.0000 C   0  0  0  0  0  0  0  0  0  0  0  0
    0.0000    0.0000    0.0000 C   0  0  0  0  0  0  0  0  0  0  0  0
    0.0000    0.0000    0.0000 O   0  0  0  0  0  0  0  0  0  0  0  0
    0.0000    0.0000    0.0000 C   0  0  0  0  0  0  0  0  0  0  0  0
    0.0000    0.0000    0.0000 C   0  0  0  0  0  0  0  0  0  0  0  0
    0.0000    0.0000    0.0000 C   0  0  0  0  0  0  0  0  0  0  0  0
    0.0000    0.0000    0.0000 C   0  0  0  0  0  0  0  0  0  0  0  0
    0.0000    0.0000    0.0000 O   0  0  0  0  0  0  0  0  0  0  0  0
    0.0000    0.0000    0.0000 N   0  0  0  0  0  0  0  0  0  0  0  0
    0.0000    0.0000    0.0000 C   0  0  0  0  0  0  0  0  0  0  0  0
    0.0000    0.0000    0.0000 C   0  0  0  0  0  0  0  0  0  0  0  0
    0.0000    0.0000    0.0000 C   0  0  0  0  0  0  0  0  0  0  0  0
    0.0000    0.0000    0.0000 C   0  0  0  0  0  0  0  0  0  0  0  0
    0.0000    0.0000    0.0000 N   0  0  0  0  0  0  0  0  0  0  0  0
    0.0000    0.0000    0.0000 C   0  0  0  0  0  0  0  0  0  0  0  0
    0.0000    0.0000    0.0000 C   0  0  0  0  0  0  0  0  0  0  0  0
    0.0000    0.0000    0.0000 C   0  0  0  0  0  0  0  0  0  0  0  0
    0.0000    0.0000    0.0000 C   0  0  0  0  0  0  0  0  0  0  0  0
    0.0000    0.0000    0.0000 C   0  0  0  0  0  0  0  0  0  0  0  0
    0.0000    0.0000    0.0000 C   0  0  0  0  0  0  0  0  0  0  0  0
    0.0000    0.0000    0.0000 C   0  0  0  0  0  0  0  0  0  0  0  0
    0.0000    0.0000    0.0000 O   0  0  0  0  0  0  0  0  0  0  0  0
    0.0000    0.0000    0.0000 N   0  0  0  0  0  0  0  0  0  0  0  0
    0.0000    0.0000    0.0000 C   0  0  0  0  0  0  0  0  0  0  0  0
    0.0000    0.0000    0.0000 C   0  0  0  0  0  0  0  0  0  0  0  0
    0.0000    0.0000    0.0000 C   0  0  0  0  0  0  0  0  0  0  0  0
    0.0000    0.0000    0.0000 C   0  0  0  0  0  0  0  0  0  0  0  0
    0.0000    0.0000    0.0000 C   0  0  0  0  0  0  0  0  0  0  0  0
    0.0000    0.0000    0.0000 C   0  0  0  0  0  0  0  0  0  0  0  0
    0.0000    0.0000    0.0000 C   0  0  0  0  0  0  0  0  0  0  0  0
    0.0000    0.0000    0.0000 C   0  0  0  0  0  0  0  0  0  0  0  0
    0.0000    0.0000    0.0000 F   0  0  0  0  0  0  0  0  0  0  0  0
    0.0000    0.0000    0.0000 F   0  0  0  0  0  0  0  0  0  0  0  0
    0.0000    0.0000    0.0000 F   0  0  0  0  0  0  0  0  0  0  0  0
    0.0000    0.0000    0.0000 C   0  0  0  0  0  0  0  0  0  0  0  0
    0.0000    0.0000    0.0000 F   0  0  0  0  0  0  0  0  0  0  0  0
    0.0000    0.0000    0.0000 F   0  0  0  0  0  0  0  0  0  0  0  0
    0.0000    0.0000    0.0000 F   0  0  0  0  0  0  0  0  0  0  0  0
  1  2  1  0
  2  3  1  0
  2  4  1  0
  4  5  1  0
  5  6  1  0
  6  7  1  0
  7  8  2  0
  7  9  1  0
  9 10  1  0
 10 11  1  0
 11 12  1  0
 12 13  1  0
 13 14  1  0
 14 15  2  0
 14 16  1  0
 16 17  1  0
 17 18  1  0
 18 19  2  0
 19 20  1  0
 20 21  2  0
 21 22  1  0
 21 23  1  0
 23 24  2  0
 16 25  1  0
 25 26  1  0
 26 27  2  0
 26 28  1  0
 28 29  1  0
 29 30  1  0
 30 31  2  0
 30 32  1  0
 32 33  1  0
 32 34  1  0
 34 35  1  0
 35 36  2  0
 35 37  1  0
 37 38  1  0
 37 39  1  0
 39 40  1  0
 40 41  2  0
 41 42  1  0
 41 43  1  0
 43 44  2  0
 44 45  1  0
 44 46  1  0
 46 47  2  0
 47 48  1  0
  5 49  1  0
 49 50  2  0
 49 51  1  0
 51 52  1  0
 52 53  1  0
 53 54  1  0
 54 55  2  0
 55 56  1  0
 56 57  1  0
 57 58  2  0
 58 59  1  0
 59 60  2  0
 60 61  1  0
 61 62  2  0
 52 63  1  0
 63 64  2  0
 63 65  1  0
 65 66  1  0
 66 67  1  0
 67 68  2  0
 68 69  1  0
 69 70  2  0
 70 71  1  0
 71 72  2  0
 71 73  1  0
 73 74  1  0
 73 75  1  0
 73 76  1  0
 69 77  1  0
 77 78  1  0
 77 79  1  0
 77 80  1  0
 13  9  1  0
 24 18  1  0
 47 40  1  0
 62 54  1  0
 62 57  1  0
 72 67  1  0
M  END
>  <pIC50>  (824) 
7.975

>  <ChEMBL_ID>  (824) 
CHEMBL3736013

>  <document_journal>  (824) 
J. Med. Chem.

>  <bao_endpoint>  (824) 
BAO_0000190

>  <potential_duplicate>  (824) 
None

>  <uo_units>  (824) 
UO_0000065

>  <canonical_smiles>  (824) 
CC(C)C[C@H](NC(=O)[C@@H]1CCCN1C(=O)[C@H](Cc2ccc(F)cc2)NC(=O)CNC(=O)[C@@H](C)NC(=O)[C@@H](N)Cc3c(C)cc(O)cc3C)C(=O)N[C@@H](Cc4c[nH]c5ccccc45)C(=O)NCc6cc(cc(c6)C(F)(F)F)C(F)(F)F

>  <parent_molecule_chembl_id>  (824) 
CHEMBL3736013

>  <assay_type>  (824) 
B

>  <src_id>  (824) 
1

>  <ligand_efficiency>  (824) 
None

>  <standard_flag>  (824) 
True

>  <molecule_chembl_id>  (824) 
CHEMBL3736013

>  <target_organism>  (824) 
Homo sapiens

>  <standard_units>  (824) 
nM

>  <record_id>  (824) 
2736456

>  <document_chembl_id>  (824) 
CHEMBL3734657

>  <bao_format>  (824) 
None

>  <data_validity_description>  (824) 
None

>  <activity_id>  (824) 
16392800

>  <standard_type>  (824) 
IC50

>  <target_chembl_id>  (824) 
CHEMBL233

>  <data_validity_comment>  (824) 
None

>  <published_value>  (824) 
8.72

>  <document_year>  (824) 
2015

>  <target_pref_name>  (824) 
Mu opioid receptor

>  <assay_chembl_id>  (824) 
CHEMBL3738443

>  <standard_relation>  (824) 
=

>  <assay_description>  (824) 
Binding affinity to mu opioid receptor (unknown origin)

>  <published_relation>  (824) 
=

>  <standard_value>  (824) 
1.905

>  <qudt_units>  (824) 
http://www.openphacts.org/units/Nanomolar

>  <target_tax_id>  (824) 
9606

>  <bao_label>  (824) 
None

>  <published_units>  (824) 
None

>  <pchembl_value>  (824) 
8.72

>  <published_type>  (824) 
pIC50

>  <activity_comment>  (824) 
None

$$$$

     RDKit          

 81 86  0  0  0  0  0  0  0  0999 V2000
    0.0000    0.0000    0.0000 C   0  0  0  0  0  0  0  0  0  0  0  0
    0.0000    0.0000    0.0000 C   0  0  0  0  0  0  0  0  0  0  0  0
    0.0000    0.0000    0.0000 C   0  0  0  0  0  0  0  0  0  0  0  0
    0.0000    0.0000    0.0000 C   0  0  0  0  0  0  0  0  0  0  0  0
    0.0000    0.0000    0.0000 C   0  0  0  0  0  0  0  0  0  0  0  0
    0.0000    0.0000    0.0000 N   0  0  0  0  0  0  0  0  0  0  0  0
    0.0000    0.0000    0.0000 C   0  0  0  0  0  0  0  0  0  0  0  0
    0.0000    0.0000    0.0000 O   0  0  0  0  0  0  0  0  0  0  0  0
    0.0000    0.0000    0.0000 C   0  0  0  0  0  0  0  0  0  0  0  0
    0.0000    0.0000    0.0000 C   0  0  0  0  0  0  0  0  0  0  0  0
    0.0000    0.0000    0.0000 C   0  0  0  0  0  0  0  0  0  0  0  0
    0.0000    0.0000    0.0000 C   0  0  0  0  0  0  0  0  0  0  0  0
    0.0000    0.0000    0.0000 N   0  0  0  0  0  0  0  0  0  0  0  0
    0.0000    0.0000    0.0000 C   0  0  0  0  0  0  0  0  0  0  0  0
    0.0000    0.0000    0.0000 O   0  0  0  0  0  0  0  0  0  0  0  0
    0.0000    0.0000    0.0000 C   0  0  0  0  0  0  0  0  0  0  0  0
    0.0000    0.0000    0.0000 C   0  0  0  0  0  0  0  0  0  0  0  0
    0.0000    0.0000    0.0000 C   0  0  0  0  0  0  0  0  0  0  0  0
    0.0000    0.0000    0.0000 C   0  0  0  0  0  0  0  0  0  0  0  0
    0.0000    0.0000    0.0000 C   0  0  0  0  0  0  0  0  0  0  0  0
    0.0000    0.0000    0.0000 C   0  0  0  0  0  0  0  0  0  0  0  0
    0.0000    0.0000    0.0000 F   0  0  0  0  0  0  0  0  0  0  0  0
    0.0000    0.0000    0.0000 C   0  0  0  0  0  0  0  0  0  0  0  0
    0.0000    0.0000    0.0000 C   0  0  0  0  0  0  0  0  0  0  0  0
    0.0000    0.0000    0.0000 N   0  0  0  0  0  0  0  0  0  0  0  0
    0.0000    0.0000    0.0000 C   0  0  0  0  0  0  0  0  0  0  0  0
    0.0000    0.0000    0.0000 C   0  0  0  0  0  0  0  0  0  0  0  0
    0.0000    0.0000    0.0000 O   0  0  0  0  0  0  0  0  0  0  0  0
    0.0000    0.0000    0.0000 C   0  0  0  0  0  0  0  0  0  0  0  0
    0.0000    0.0000    0.0000 N   0  0  0  0  0  0  0  0  0  0  0  0
    0.0000    0.0000    0.0000 C   0  0  0  0  0  0  0  0  0  0  0  0
    0.0000    0.0000    0.0000 O   0  0  0  0  0  0  0  0  0  0  0  0
    0.0000    0.0000    0.0000 C   0  0  0  0  0  0  0  0  0  0  0  0
    0.0000    0.0000    0.0000 C   0  0  0  0  0  0  0  0  0  0  0  0
    0.0000    0.0000    0.0000 N   0  0  0  0  0  0  0  0  0  0  0  0
    0.0000    0.0000    0.0000 C   0  0  0  0  0  0  0  0  0  0  0  0
    0.0000    0.0000    0.0000 O   0  0  0  0  0  0  0  0  0  0  0  0
    0.0000    0.0000    0.0000 C   0  0  0  0  0  0  0  0  0  0  0  0
    0.0000    0.0000    0.0000 N   0  0  0  0  0  0  0  0  0  0  0  0
    0.0000    0.0000    0.0000 C   0  0  0  0  0  0  0  0  0  0  0  0
    0.0000    0.0000    0.0000 C   0  0  0  0  0  0  0  0  0  0  0  0
    0.0000    0.0000    0.0000 C   0  0  0  0  0  0  0  0  0  0  0  0
    0.0000    0.0000    0.0000 C   0  0  0  0  0  0  0  0  0  0  0  0
    0.0000    0.0000    0.0000 C   0  0  0  0  0  0  0  0  0  0  0  0
    0.0000    0.0000    0.0000 C   0  0  0  0  0  0  0  0  0  0  0  0
    0.0000    0.0000    0.0000 O   0  0  0  0  0  0  0  0  0  0  0  0
    0.0000    0.0000    0.0000 C   0  0  0  0  0  0  0  0  0  0  0  0
    0.0000    0.0000    0.0000 C   0  0  0  0  0  0  0  0  0  0  0  0
    0.0000    0.0000    0.0000 C   0  0  0  0  0  0  0  0  0  0  0  0
    0.0000    0.0000    0.0000 C   0  0  0  0  0  0  0  0  0  0  0  0
    0.0000    0.0000    0.0000 O   0  0  0  0  0  0  0  0  0  0  0  0
    0.0000    0.0000    0.0000 N   0  0  0  0  0  0  0  0  0  0  0  0
    0.0000    0.0000    0.0000 C   0  0  0  0  0  0  0  0  0  0  0  0
    0.0000    0.0000    0.0000 C   0  0  0  0  0  0  0  0  0  0  0  0
    0.0000    0.0000    0.0000 C   0  0  0  0  0  0  0  0  0  0  0  0
    0.0000    0.0000    0.0000 C   0  0  0  0  0  0  0  0  0  0  0  0
    0.0000    0.0000    0.0000 N   0  0  0  0  0  0  0  0  0  0  0  0
    0.0000    0.0000    0.0000 C   0  0  0  0  0  0  0  0  0  0  0  0
    0.0000    0.0000    0.0000 C   0  0  0  0  0  0  0  0  0  0  0  0
    0.0000    0.0000    0.0000 C   0  0  0  0  0  0  0  0  0  0  0  0
    0.0000    0.0000    0.0000 C   0  0  0  0  0  0  0  0  0  0  0  0
    0.0000    0.0000    0.0000 C   0  0  0  0  0  0  0  0  0  0  0  0
    0.0000    0.0000    0.0000 C   0  0  0  0  0  0  0  0  0  0  0  0
    0.0000    0.0000    0.0000 C   0  0  0  0  0  0  0  0  0  0  0  0
    0.0000    0.0000    0.0000 O   0  0  0  0  0  0  0  0  0  0  0  0
    0.0000    0.0000    0.0000 N   0  0  0  0  0  0  0  0  0  0  0  0
    0.0000    0.0000    0.0000 C   0  0  0  0  0  0  0  0  0  0  0  0
    0.0000    0.0000    0.0000 C   0  0  0  0  0  0  0  0  0  0  0  0
    0.0000    0.0000    0.0000 C   0  0  0  0  0  0  0  0  0  0  0  0
    0.0000    0.0000    0.0000 C   0  0  0  0  0  0  0  0  0  0  0  0
    0.0000    0.0000    0.0000 C   0  0  0  0  0  0  0  0  0  0  0  0
    0.0000    0.0000    0.0000 C   0  0  0  0  0  0  0  0  0  0  0  0
    0.0000    0.0000    0.0000 C   0  0  0  0  0  0  0  0  0  0  0  0
    0.0000    0.0000    0.0000 C   0  0  0  0  0  0  0  0  0  0  0  0
    0.0000    0.0000    0.0000 F   0  0  0  0  0  0  0  0  0  0  0  0
    0.0000    0.0000    0.0000 F   0  0  0  0  0  0  0  0  0  0  0  0
    0.0000    0.0000    0.0000 F   0  0  0  0  0  0  0  0  0  0  0  0
    0.0000    0.0000    0.0000 C   0  0  0  0  0  0  0  0  0  0  0  0
    0.0000    0.0000    0.0000 F   0  0  0  0  0  0  0  0  0  0  0  0
    0.0000    0.0000    0.0000 F   0  0  0  0  0  0  0  0  0  0  0  0
    0.0000    0.0000    0.0000 F   0  0  0  0  0  0  0  0  0  0  0  0
  1  2  1  0
  2  3  1  0
  2  4  1  0
  4  5  1  0
  5  6  1  0
  6  7  1  0
  7  8  2  0
  7  9  1  0
  9 10  1  0
 10 11  1  0
 11 12  1  0
 12 13  1  0
 13 14  1  0
 14 15  2  0
 14 16  1  0
 16 17  1  0
 17 18  1  0
 18 19  2  0
 19 20  1  0
 20 21  2  0
 21 22  1  0
 21 23  1  0
 23 24  2  0
 16 25  1  0
 25 26  1  0
 25 27  1  0
 27 28  2  0
 27 29  1  0
 29 30  1  0
 30 31  1  0
 31 32  2  0
 31 33  1  0
 33 34  1  0
 33 35  1  0
 35 36  1  0
 36 37  2  0
 36 38  1  0
 38 39  1  0
 38 40  1  0
 40 41  1  0
 41 42  2  0
 42 43  1  0
 42 44  1  0
 44 45  2  0
 45 46  1  0
 45 47  1  0
 47 48  2  0
 48 49  1  0
  5 50  1  0
 50 51  2  0
 50 52  1  0
 52 53  1  0
 53 54  1  0
 54 55  1  0
 55 56  2  0
 56 57  1  0
 57 58  1  0
 58 59  2  0
 59 60  1  0
 60 61  2  0
 61 62  1  0
 62 63  2  0
 53 64  1  0
 64 65  2  0
 64 66  1  0
 66 67  1  0
 67 68  1  0
 68 69  2  0
 69 70  1  0
 70 71  2  0
 71 72  1  0
 72 73  2  0
 72 74  1  0
 74 75  1  0
 74 76  1  0
 74 77  1  0
 70 78  1  0
 78 79  1  0
 78 80  1  0
 78 81  1  0
 13  9  1  0
 24 18  1  0
 48 41  1  0
 63 55  1  0
 63 58  1  0
 73 68  1  0
M  END
>  <pIC50>  (825) 
8.55

>  <ChEMBL_ID>  (825) 
CHEMBL3735298

>  <document_journal>  (825) 
J. Med. Chem.

>  <bao_endpoint>  (825) 
BAO_0000190

>  <potential_duplicate>  (825) 
None

>  <uo_units>  (825) 
UO_0000065

>  <canonical_smiles>  (825) 
CC(C)C[C@H](NC(=O)[C@@H]1CCCN1C(=O)[C@H](Cc2ccc(F)cc2)N(C)C(=O)CNC(=O)[C@@H](C)NC(=O)[C@@H](N)Cc3c(C)cc(O)cc3C)C(=O)N[C@@H](Cc4c[nH]c5ccccc45)C(=O)NCc6cc(cc(c6)C(F)(F)F)C(F)(F)F

>  <parent_molecule_chembl_id>  (825) 
CHEMBL3735298

>  <assay_type>  (825) 
B

>  <src_id>  (825) 
1

>  <ligand_efficiency>  (825) 
None

>  <standard_flag>  (825) 
True

>  <molecule_chembl_id>  (825) 
CHEMBL3735298

>  <target_organism>  (825) 
Homo sapiens

>  <standard_units>  (825) 
nM

>  <record_id>  (825) 
2736457

>  <document_chembl_id>  (825) 
CHEMBL3734657

>  <bao_format>  (825) 
None

>  <data_validity_description>  (825) 
None

>  <activity_id>  (825) 
16392802

>  <standard_type>  (825) 
IC50

>  <target_chembl_id>  (825) 
CHEMBL233

>  <data_validity_comment>  (825) 
None

>  <published_value>  (825) 
8.55

>  <document_year>  (825) 
2015

>  <target_pref_name>  (825) 
Mu opioid receptor

>  <assay_chembl_id>  (825) 
CHEMBL3738443

>  <standard_relation>  (825) 
=

>  <assay_description>  (825) 
Binding affinity to mu opioid receptor (unknown origin)

>  <published_relation>  (825) 
=

>  <standard_value>  (825) 
2.818

>  <qudt_units>  (825) 
http://www.openphacts.org/units/Nanomolar

>  <target_tax_id>  (825) 
9606

>  <bao_label>  (825) 
None

>  <published_units>  (825) 
None

>  <pchembl_value>  (825) 
8.55

>  <published_type>  (825) 
pIC50

>  <activity_comment>  (825) 
None

$$$$

     RDKit          

 78 83  0  0  0  0  0  0  0  0999 V2000
    0.0000    0.0000    0.0000 C   0  0  0  0  0  0  0  0  0  0  0  0
    0.0000    0.0000    0.0000 C   0  0  0  0  0  0  0  0  0  0  0  0
    0.0000    0.0000    0.0000 C   0  0  0  0  0  0  0  0  0  0  0  0
    0.0000    0.0000    0.0000 C   0  0  0  0  0  0  0  0  0  0  0  0
    0.0000    0.0000    0.0000 C   0  0  0  0  0  0  0  0  0  0  0  0
    0.0000    0.0000    0.0000 N   0  0  0  0  0  0  0  0  0  0  0  0
    0.0000    0.0000    0.0000 C   0  0  0  0  0  0  0  0  0  0  0  0
    0.0000    0.0000    0.0000 O   0  0  0  0  0  0  0  0  0  0  0  0
    0.0000    0.0000    0.0000 C   0  0  0  0  0  0  0  0  0  0  0  0
    0.0000    0.0000    0.0000 C   0  0  0  0  0  0  0  0  0  0  0  0
    0.0000    0.0000    0.0000 C   0  0  0  0  0  0  0  0  0  0  0  0
    0.0000    0.0000    0.0000 C   0  0  0  0  0  0  0  0  0  0  0  0
    0.0000    0.0000    0.0000 N   0  0  0  0  0  0  0  0  0  0  0  0
    0.0000    0.0000    0.0000 C   0  0  0  0  0  0  0  0  0  0  0  0
    0.0000    0.0000    0.0000 O   0  0  0  0  0  0  0  0  0  0  0  0
    0.0000    0.0000    0.0000 C   0  0  0  0  0  0  0  0  0  0  0  0
    0.0000    0.0000    0.0000 C   0  0  0  0  0  0  0  0  0  0  0  0
    0.0000    0.0000    0.0000 C   0  0  0  0  0  0  0  0  0  0  0  0
    0.0000    0.0000    0.0000 C   0  0  0  0  0  0  0  0  0  0  0  0
    0.0000    0.0000    0.0000 C   0  0  0  0  0  0  0  0  0  0  0  0
    0.0000    0.0000    0.0000 C   0  0  0  0  0  0  0  0  0  0  0  0
    0.0000    0.0000    0.0000 F   0  0  0  0  0  0  0  0  0  0  0  0
    0.0000    0.0000    0.0000 C   0  0  0  0  0  0  0  0  0  0  0  0
    0.0000    0.0000    0.0000 C   0  0  0  0  0  0  0  0  0  0  0  0
    0.0000    0.0000    0.0000 N   0  0  0  0  0  0  0  0  0  0  0  0
    0.0000    0.0000    0.0000 C   0  0  0  0  0  0  0  0  0  0  0  0
    0.0000    0.0000    0.0000 O   0  0  0  0  0  0  0  0  0  0  0  0
    0.0000    0.0000    0.0000 C   0  0  0  0  0  0  0  0  0  0  0  0
    0.0000    0.0000    0.0000 N   0  0  0  0  0  0  0  0  0  0  0  0
    0.0000    0.0000    0.0000 C   0  0  0  0  0  0  0  0  0  0  0  0
    0.0000    0.0000    0.0000 O   0  0  0  0  0  0  0  0  0  0  0  0
    0.0000    0.0000    0.0000 C   0  0  0  0  0  0  0  0  0  0  0  0
    0.0000    0.0000    0.0000 C   0  0  0  0  0  0  0  0  0  0  0  0
    0.0000    0.0000    0.0000 N   0  0  0  0  0  0  0  0  0  0  0  0
    0.0000    0.0000    0.0000 C   0  0  0  0  0  0  0  0  0  0  0  0
    0.0000    0.0000    0.0000 O   0  0  0  0  0  0  0  0  0  0  0  0
    0.0000    0.0000    0.0000 C   0  0  0  0  0  0  0  0  0  0  0  0
    0.0000    0.0000    0.0000 N   0  0  0  0  0  0  0  0  0  0  0  0
    0.0000    0.0000    0.0000 C   0  0  0  0  0  0  0  0  0  0  0  0
    0.0000    0.0000    0.0000 C   0  0  0  0  0  0  0  0  0  0  0  0
    0.0000    0.0000    0.0000 C   0  0  0  0  0  0  0  0  0  0  0  0
    0.0000    0.0000    0.0000 C   0  0  0  0  0  0  0  0  0  0  0  0
    0.0000    0.0000    0.0000 C   0  0  0  0  0  0  0  0  0  0  0  0
    0.0000    0.0000    0.0000 O   0  0  0  0  0  0  0  0  0  0  0  0
    0.0000    0.0000    0.0000 C   0  0  0  0  0  0  0  0  0  0  0  0
    0.0000    0.0000    0.0000 C   0  0  0  0  0  0  0  0  0  0  0  0
    0.0000    0.0000    0.0000 C   0  0  0  0  0  0  0  0  0  0  0  0
    0.0000    0.0000    0.0000 O   0  0  0  0  0  0  0  0  0  0  0  0
    0.0000    0.0000    0.0000 N   0  0  0  0  0  0  0  0  0  0  0  0
    0.0000    0.0000    0.0000 C   0  0  0  0  0  0  0  0  0  0  0  0
    0.0000    0.0000    0.0000 C   0  0  0  0  0  0  0  0  0  0  0  0
    0.0000    0.0000    0.0000 C   0  0  0  0  0  0  0  0  0  0  0  0
    0.0000    0.0000    0.0000 C   0  0  0  0  0  0  0  0  0  0  0  0
    0.0000    0.0000    0.0000 N   0  0  0  0  0  0  0  0  0  0  0  0
    0.0000    0.0000    0.0000 C   0  0  0  0  0  0  0  0  0  0  0  0
    0.0000    0.0000    0.0000 C   0  0  0  0  0  0  0  0  0  0  0  0
    0.0000    0.0000    0.0000 C   0  0  0  0  0  0  0  0  0  0  0  0
    0.0000    0.0000    0.0000 C   0  0  0  0  0  0  0  0  0  0  0  0
    0.0000    0.0000    0.0000 C   0  0  0  0  0  0  0  0  0  0  0  0
    0.0000    0.0000    0.0000 C   0  0  0  0  0  0  0  0  0  0  0  0
    0.0000    0.0000    0.0000 C   0  0  0  0  0  0  0  0  0  0  0  0
    0.0000    0.0000    0.0000 O   0  0  0  0  0  0  0  0  0  0  0  0
    0.0000    0.0000    0.0000 N   0  0  0  0  0  0  0  0  0  0  0  0
    0.0000    0.0000    0.0000 C   0  0  0  0  0  0  0  0  0  0  0  0
    0.0000    0.0000    0.0000 C   0  0  0  0  0  0  0  0  0  0  0  0
    0.0000    0.0000    0.0000 C   0  0  0  0  0  0  0  0  0  0  0  0
    0.0000    0.0000    0.0000 C   0  0  0  0  0  0  0  0  0  0  0  0
    0.0000    0.0000    0.0000 C   0  0  0  0  0  0  0  0  0  0  0  0
    0.0000    0.0000    0.0000 C   0  0  0  0  0  0  0  0  0  0  0  0
    0.0000    0.0000    0.0000 C   0  0  0  0  0  0  0  0  0  0  0  0
    0.0000    0.0000    0.0000 C   0  0  0  0  0  0  0  0  0  0  0  0
    0.0000    0.0000    0.0000 F   0  0  0  0  0  0  0  0  0  0  0  0
    0.0000    0.0000    0.0000 F   0  0  0  0  0  0  0  0  0  0  0  0
    0.0000    0.0000    0.0000 F   0  0  0  0  0  0  0  0  0  0  0  0
    0.0000    0.0000    0.0000 C   0  0  0  0  0  0  0  0  0  0  0  0
    0.0000    0.0000    0.0000 F   0  0  0  0  0  0  0  0  0  0  0  0
    0.0000    0.0000    0.0000 F   0  0  0  0  0  0  0  0  0  0  0  0
    0.0000    0.0000    0.0000 F   0  0  0  0  0  0  0  0  0  0  0  0
  1  2  1  0
  2  3  1  0
  2  4  1  0
  4  5  1  0
  5  6  1  0
  6  7  1  0
  7  8  2  0
  7  9  1  0
  9 10  1  0
 10 11  1  0
 11 12  1  0
 12 13  1  0
 13 14  1  0
 14 15  2  0
 14 16  1  0
 16 17  1  0
 17 18  1  0
 18 19  2  0
 19 20  1  0
 20 21  2  0
 21 22  1  0
 21 23  1  0
 23 24  2  0
 16 25  1  0
 25 26  1  0
 26 27  2  0
 26 28  1  0
 28 29  1  0
 29 30  1  0
 30 31  2  0
 30 32  1  0
 32 33  1  0
 32 34  1  0
 34 35  1  0
 35 36  2  0
 35 37  1  0
 37 38  1  0
 37 39  1  0
 39 40  1  0
 40 41  2  0
 41 42  1  0
 42 43  2  0
 43 44  1  0
 43 45  1  0
 45 46  2  0
  5 47  1  0
 47 48  2  0
 47 49  1  0
 49 50  1  0
 50 51  1  0
 51 52  1  0
 52 53  2  0
 53 54  1  0
 54 55  1  0
 55 56  2  0
 56 57  1  0
 57 58  2  0
 58 59  1  0
 59 60  2  0
 50 61  1  0
 61 62  2  0
 61 63  1  0
 63 64  1  0
 64 65  1  0
 65 66  2  0
 66 67  1  0
 67 68  2  0
 68 69  1  0
 69 70  2  0
 69 71  1  0
 71 72  1  0
 71 73  1  0
 71 74  1  0
 67 75  1  0
 75 76  1  0
 75 77  1  0
 75 78  1  0
 13  9  1  0
 24 18  1  0
 46 40  1  0
 60 52  1  0
 60 55  1  0
 70 65  1  0
M  END
>  <pIC50>  (826) 
8.08

>  <ChEMBL_ID>  (826) 
CHEMBL3735476

>  <document_journal>  (826) 
J. Med. Chem.

>  <bao_endpoint>  (826) 
BAO_0000190

>  <potential_duplicate>  (826) 
None

>  <uo_units>  (826) 
UO_0000065

>  <canonical_smiles>  (826) 
CC(C)C[C@H](NC(=O)[C@@H]1CCCN1C(=O)[C@H](Cc2ccc(F)cc2)NC(=O)CNC(=O)[C@@H](C)NC(=O)[C@@H](N)Cc3ccc(O)cc3)C(=O)N[C@@H](Cc4c[nH]c5ccccc45)C(=O)NCc6cc(cc(c6)C(F)(F)F)C(F)(F)F

>  <parent_molecule_chembl_id>  (826) 
CHEMBL3735476

>  <assay_type>  (826) 
B

>  <src_id>  (826) 
1

>  <ligand_efficiency>  (826) 
None

>  <standard_flag>  (826) 
True

>  <molecule_chembl_id>  (826) 
CHEMBL3735476

>  <target_organism>  (826) 
Homo sapiens

>  <standard_units>  (826) 
nM

>  <record_id>  (826) 
2736458

>  <document_chembl_id>  (826) 
CHEMBL3734657

>  <bao_format>  (826) 
None

>  <data_validity_description>  (826) 
None

>  <activity_id>  (826) 
16392804

>  <standard_type>  (826) 
IC50

>  <target_chembl_id>  (826) 
CHEMBL233

>  <data_validity_comment>  (826) 
None

>  <published_value>  (826) 
8.08

>  <document_year>  (826) 
2015

>  <target_pref_name>  (826) 
Mu opioid receptor

>  <assay_chembl_id>  (826) 
CHEMBL3738443

>  <standard_relation>  (826) 
=

>  <assay_description>  (826) 
Binding affinity to mu opioid receptor (unknown origin)

>  <published_relation>  (826) 
=

>  <standard_value>  (826) 
8.318

>  <qudt_units>  (826) 
http://www.openphacts.org/units/Nanomolar

>  <target_tax_id>  (826) 
9606

>  <bao_label>  (826) 
None

>  <published_units>  (826) 
None

>  <pchembl_value>  (826) 
8.08

>  <published_type>  (826) 
pIC50

>  <activity_comment>  (826) 
None

$$$$

     RDKit          

 80 85  0  0  0  0  0  0  0  0999 V2000
    0.0000    0.0000    0.0000 C   0  0  0  0  0  0  0  0  0  0  0  0
    0.0000    0.0000    0.0000 C   0  0  0  0  0  0  0  0  0  0  0  0
    0.0000    0.0000    0.0000 C   0  0  0  0  0  0  0  0  0  0  0  0
    0.0000    0.0000    0.0000 C   0  0  0  0  0  0  0  0  0  0  0  0
    0.0000    0.0000    0.0000 C   0  0  0  0  0  0  0  0  0  0  0  0
    0.0000    0.0000    0.0000 N   0  0  0  0  0  0  0  0  0  0  0  0
    0.0000    0.0000    0.0000 C   0  0  0  0  0  0  0  0  0  0  0  0
    0.0000    0.0000    0.0000 O   0  0  0  0  0  0  0  0  0  0  0  0
    0.0000    0.0000    0.0000 C   0  0  0  0  0  0  0  0  0  0  0  0
    0.0000    0.0000    0.0000 C   0  0  0  0  0  0  0  0  0  0  0  0
    0.0000    0.0000    0.0000 C   0  0  0  0  0  0  0  0  0  0  0  0
    0.0000    0.0000    0.0000 C   0  0  0  0  0  0  0  0  0  0  0  0
    0.0000    0.0000    0.0000 N   0  0  0  0  0  0  0  0  0  0  0  0
    0.0000    0.0000    0.0000 C   0  0  0  0  0  0  0  0  0  0  0  0
    0.0000    0.0000    0.0000 O   0  0  0  0  0  0  0  0  0  0  0  0
    0.0000    0.0000    0.0000 C   0  0  0  0  0  0  0  0  0  0  0  0
    0.0000    0.0000    0.0000 C   0  0  0  0  0  0  0  0  0  0  0  0
    0.0000    0.0000    0.0000 C   0  0  0  0  0  0  0  0  0  0  0  0
    0.0000    0.0000    0.0000 C   0  0  0  0  0  0  0  0  0  0  0  0
    0.0000    0.0000    0.0000 C   0  0  0  0  0  0  0  0  0  0  0  0
    0.0000    0.0000    0.0000 C   0  0  0  0  0  0  0  0  0  0  0  0
    0.0000    0.0000    0.0000 Cl  0  0  0  0  0  0  0  0  0  0  0  0
    0.0000    0.0000    0.0000 C   0  0  0  0  0  0  0  0  0  0  0  0
    0.0000    0.0000    0.0000 C   0  0  0  0  0  0  0  0  0  0  0  0
    0.0000    0.0000    0.0000 N   0  0  0  0  0  0  0  0  0  0  0  0
    0.0000    0.0000    0.0000 C   0  0  0  0  0  0  0  0  0  0  0  0
    0.0000    0.0000    0.0000 O   0  0  0  0  0  0  0  0  0  0  0  0
    0.0000    0.0000    0.0000 C   0  0  0  0  0  0  0  0  0  0  0  0
    0.0000    0.0000    0.0000 N   0  0  0  0  0  0  0  0  0  0  0  0
    0.0000    0.0000    0.0000 C   0  0  0  0  0  0  0  0  0  0  0  0
    0.0000    0.0000    0.0000 O   0  0  0  0  0  0  0  0  0  0  0  0
    0.0000    0.0000    0.0000 C   0  0  0  0  0  0  0  0  0  0  0  0
    0.0000    0.0000    0.0000 C   0  0  0  0  0  0  0  0  0  0  0  0
    0.0000    0.0000    0.0000 N   0  0  0  0  0  0  0  0  0  0  0  0
    0.0000    0.0000    0.0000 C   0  0  0  0  0  0  0  0  0  0  0  0
    0.0000    0.0000    0.0000 O   0  0  0  0  0  0  0  0  0  0  0  0
    0.0000    0.0000    0.0000 C   0  0  0  0  0  0  0  0  0  0  0  0
    0.0000    0.0000    0.0000 N   0  0  0  0  0  0  0  0  0  0  0  0
    0.0000    0.0000    0.0000 C   0  0  0  0  0  0  0  0  0  0  0  0
    0.0000    0.0000    0.0000 C   0  0  0  0  0  0  0  0  0  0  0  0
    0.0000    0.0000    0.0000 C   0  0  0  0  0  0  0  0  0  0  0  0
    0.0000    0.0000    0.0000 C   0  0  0  0  0  0  0  0  0  0  0  0
    0.0000    0.0000    0.0000 C   0  0  0  0  0  0  0  0  0  0  0  0
    0.0000    0.0000    0.0000 C   0  0  0  0  0  0  0  0  0  0  0  0
    0.0000    0.0000    0.0000 O   0  0  0  0  0  0  0  0  0  0  0  0
    0.0000    0.0000    0.0000 C   0  0  0  0  0  0  0  0  0  0  0  0
    0.0000    0.0000    0.0000 C   0  0  0  0  0  0  0  0  0  0  0  0
    0.0000    0.0000    0.0000 C   0  0  0  0  0  0  0  0  0  0  0  0
    0.0000    0.0000    0.0000 C   0  0  0  0  0  0  0  0  0  0  0  0
    0.0000    0.0000    0.0000 O   0  0  0  0  0  0  0  0  0  0  0  0
    0.0000    0.0000    0.0000 N   0  0  0  0  0  0  0  0  0  0  0  0
    0.0000    0.0000    0.0000 C   0  0  0  0  0  0  0  0  0  0  0  0
    0.0000    0.0000    0.0000 C   0  0  0  0  0  0  0  0  0  0  0  0
    0.0000    0.0000    0.0000 C   0  0  0  0  0  0  0  0  0  0  0  0
    0.0000    0.0000    0.0000 C   0  0  0  0  0  0  0  0  0  0  0  0
    0.0000    0.0000    0.0000 N   0  0  0  0  0  0  0  0  0  0  0  0
    0.0000    0.0000    0.0000 C   0  0  0  0  0  0  0  0  0  0  0  0
    0.0000    0.0000    0.0000 C   0  0  0  0  0  0  0  0  0  0  0  0
    0.0000    0.0000    0.0000 C   0  0  0  0  0  0  0  0  0  0  0  0
    0.0000    0.0000    0.0000 C   0  0  0  0  0  0  0  0  0  0  0  0
    0.0000    0.0000    0.0000 C   0  0  0  0  0  0  0  0  0  0  0  0
    0.0000    0.0000    0.0000 C   0  0  0  0  0  0  0  0  0  0  0  0
    0.0000    0.0000    0.0000 C   0  0  0  0  0  0  0  0  0  0  0  0
    0.0000    0.0000    0.0000 O   0  0  0  0  0  0  0  0  0  0  0  0
    0.0000    0.0000    0.0000 N   0  0  0  0  0  0  0  0  0  0  0  0
    0.0000    0.0000    0.0000 C   0  0  0  0  0  0  0  0  0  0  0  0
    0.0000    0.0000    0.0000 C   0  0  0  0  0  0  0  0  0  0  0  0
    0.0000    0.0000    0.0000 C   0  0  0  0  0  0  0  0  0  0  0  0
    0.0000    0.0000    0.0000 C   0  0  0  0  0  0  0  0  0  0  0  0
    0.0000    0.0000    0.0000 C   0  0  0  0  0  0  0  0  0  0  0  0
    0.0000    0.0000    0.0000 C   0  0  0  0  0  0  0  0  0  0  0  0
    0.0000    0.0000    0.0000 C   0  0  0  0  0  0  0  0  0  0  0  0
    0.0000    0.0000    0.0000 C   0  0  0  0  0  0  0  0  0  0  0  0
    0.0000    0.0000    0.0000 F   0  0  0  0  0  0  0  0  0  0  0  0
    0.0000    0.0000    0.0000 F   0  0  0  0  0  0  0  0  0  0  0  0
    0.0000    0.0000    0.0000 F   0  0  0  0  0  0  0  0  0  0  0  0
    0.0000    0.0000    0.0000 C   0  0  0  0  0  0  0  0  0  0  0  0
    0.0000    0.0000    0.0000 F   0  0  0  0  0  0  0  0  0  0  0  0
    0.0000    0.0000    0.0000 F   0  0  0  0  0  0  0  0  0  0  0  0
    0.0000    0.0000    0.0000 F   0  0  0  0  0  0  0  0  0  0  0  0
  1  2  1  0
  2  3  1  0
  2  4  1  0
  4  5  1  0
  5  6  1  0
  6  7  1  0
  7  8  2  0
  7  9  1  0
  9 10  1  0
 10 11  1  0
 11 12  1  0
 12 13  1  0
 13 14  1  0
 14 15  2  0
 14 16  1  0
 16 17  1  0
 17 18  1  0
 18 19  2  0
 19 20  1  0
 20 21  2  0
 21 22  1  0
 21 23  1  0
 23 24  2  0
 16 25  1  0
 25 26  1  0
 26 27  2  0
 26 28  1  0
 28 29  1  0
 29 30  1  0
 30 31  2  0
 30 32  1  0
 32 33  1  0
 32 34  1  0
 34 35  1  0
 35 36  2  0
 35 37  1  0
 37 38  1  0
 37 39  1  0
 39 40  1  0
 40 41  2  0
 41 42  1  0
 41 43  1  0
 43 44  2  0
 44 45  1  0
 44 46  1  0
 46 47  2  0
 47 48  1  0
  5 49  1  0
 49 50  2  0
 49 51  1  0
 51 52  1  0
 52 53  1  0
 53 54  1  0
 54 55  2  0
 55 56  1  0
 56 57  1  0
 57 58  2  0
 58 59  1  0
 59 60  2  0
 60 61  1  0
 61 62  2  0
 52 63  1  0
 63 64  2  0
 63 65  1  0
 65 66  1  0
 66 67  1  0
 67 68  2  0
 68 69  1  0
 69 70  2  0
 70 71  1  0
 71 72  2  0
 71 73  1  0
 73 74  1  0
 73 75  1  0
 73 76  1  0
 69 77  1  0
 77 78  1  0
 77 79  1  0
 77 80  1  0
 13  9  1  0
 24 18  1  0
 47 40  1  0
 62 54  1  0
 62 57  1  0
 72 67  1  0
M  END
>  <pIC50>  (827) 
8.33

>  <ChEMBL_ID>  (827) 
CHEMBL3736420

>  <document_journal>  (827) 
J. Med. Chem.

>  <bao_endpoint>  (827) 
BAO_0000190

>  <potential_duplicate>  (827) 
None

>  <uo_units>  (827) 
UO_0000065

>  <canonical_smiles>  (827) 
CC(C)C[C@H](NC(=O)[C@@H]1CCCN1C(=O)[C@H](Cc2ccc(Cl)cc2)NC(=O)CNC(=O)[C@@H](C)NC(=O)[C@@H](N)Cc3c(C)cc(O)cc3C)C(=O)N[C@@H](Cc4c[nH]c5ccccc45)C(=O)NCc6cc(cc(c6)C(F)(F)F)C(F)(F)F

>  <parent_molecule_chembl_id>  (827) 
CHEMBL3736420

>  <assay_type>  (827) 
B

>  <src_id>  (827) 
1

>  <ligand_efficiency>  (827) 
None

>  <standard_flag>  (827) 
True

>  <molecule_chembl_id>  (827) 
CHEMBL3736420

>  <target_organism>  (827) 
Homo sapiens

>  <standard_units>  (827) 
nM

>  <record_id>  (827) 
2736459

>  <document_chembl_id>  (827) 
CHEMBL3734657

>  <bao_format>  (827) 
None

>  <data_validity_description>  (827) 
None

>  <activity_id>  (827) 
16392806

>  <standard_type>  (827) 
IC50

>  <target_chembl_id>  (827) 
CHEMBL233

>  <data_validity_comment>  (827) 
None

>  <published_value>  (827) 
8.33

>  <document_year>  (827) 
2015

>  <target_pref_name>  (827) 
Mu opioid receptor

>  <assay_chembl_id>  (827) 
CHEMBL3738443

>  <standard_relation>  (827) 
=

>  <assay_description>  (827) 
Binding affinity to mu opioid receptor (unknown origin)

>  <published_relation>  (827) 
=

>  <standard_value>  (827) 
4.677

>  <qudt_units>  (827) 
http://www.openphacts.org/units/Nanomolar

>  <target_tax_id>  (827) 
9606

>  <bao_label>  (827) 
None

>  <published_units>  (827) 
None

>  <pchembl_value>  (827) 
8.33

>  <published_type>  (827) 
pIC50

>  <activity_comment>  (827) 
None

$$$$

     RDKit          

 80 85  0  0  0  0  0  0  0  0999 V2000
    0.0000    0.0000    0.0000 C   0  0  0  0  0  0  0  0  0  0  0  0
    0.0000    0.0000    0.0000 C   0  0  0  0  0  0  0  0  0  0  0  0
    0.0000    0.0000    0.0000 C   0  0  0  0  0  0  0  0  0  0  0  0
    0.0000    0.0000    0.0000 C   0  0  0  0  0  0  0  0  0  0  0  0
    0.0000    0.0000    0.0000 C   0  0  0  0  0  0  0  0  0  0  0  0
    0.0000    0.0000    0.0000 N   0  0  0  0  0  0  0  0  0  0  0  0
    0.0000    0.0000    0.0000 C   0  0  0  0  0  0  0  0  0  0  0  0
    0.0000    0.0000    0.0000 O   0  0  0  0  0  0  0  0  0  0  0  0
    0.0000    0.0000    0.0000 C   0  0  0  0  0  0  0  0  0  0  0  0
    0.0000    0.0000    0.0000 C   0  0  0  0  0  0  0  0  0  0  0  0
    0.0000    0.0000    0.0000 C   0  0  0  0  0  0  0  0  0  0  0  0
    0.0000    0.0000    0.0000 C   0  0  0  0  0  0  0  0  0  0  0  0
    0.0000    0.0000    0.0000 N   0  0  0  0  0  0  0  0  0  0  0  0
    0.0000    0.0000    0.0000 C   0  0  0  0  0  0  0  0  0  0  0  0
    0.0000    0.0000    0.0000 O   0  0  0  0  0  0  0  0  0  0  0  0
    0.0000    0.0000    0.0000 C   0  0  0  0  0  0  0  0  0  0  0  0
    0.0000    0.0000    0.0000 C   0  0  0  0  0  0  0  0  0  0  0  0
    0.0000    0.0000    0.0000 C   0  0  0  0  0  0  0  0  0  0  0  0
    0.0000    0.0000    0.0000 C   0  0  0  0  0  0  0  0  0  0  0  0
    0.0000    0.0000    0.0000 C   0  0  0  0  0  0  0  0  0  0  0  0
    0.0000    0.0000    0.0000 C   0  0  0  0  0  0  0  0  0  0  0  0
    0.0000    0.0000    0.0000 Br  0  0  0  0  0  0  0  0  0  0  0  0
    0.0000    0.0000    0.0000 C   0  0  0  0  0  0  0  0  0  0  0  0
    0.0000    0.0000    0.0000 C   0  0  0  0  0  0  0  0  0  0  0  0
    0.0000    0.0000    0.0000 N   0  0  0  0  0  0  0  0  0  0  0  0
    0.0000    0.0000    0.0000 C   0  0  0  0  0  0  0  0  0  0  0  0
    0.0000    0.0000    0.0000 O   0  0  0  0  0  0  0  0  0  0  0  0
    0.0000    0.0000    0.0000 C   0  0  0  0  0  0  0  0  0  0  0  0
    0.0000    0.0000    0.0000 N   0  0  0  0  0  0  0  0  0  0  0  0
    0.0000    0.0000    0.0000 C   0  0  0  0  0  0  0  0  0  0  0  0
    0.0000    0.0000    0.0000 O   0  0  0  0  0  0  0  0  0  0  0  0
    0.0000    0.0000    0.0000 C   0  0  0  0  0  0  0  0  0  0  0  0
    0.0000    0.0000    0.0000 C   0  0  0  0  0  0  0  0  0  0  0  0
    0.0000    0.0000    0.0000 N   0  0  0  0  0  0  0  0  0  0  0  0
    0.0000    0.0000    0.0000 C   0  0  0  0  0  0  0  0  0  0  0  0
    0.0000    0.0000    0.0000 O   0  0  0  0  0  0  0  0  0  0  0  0
    0.0000    0.0000    0.0000 C   0  0  0  0  0  0  0  0  0  0  0  0
    0.0000    0.0000    0.0000 N   0  0  0  0  0  0  0  0  0  0  0  0
    0.0000    0.0000    0.0000 C   0  0  0  0  0  0  0  0  0  0  0  0
    0.0000    0.0000    0.0000 C   0  0  0  0  0  0  0  0  0  0  0  0
    0.0000    0.0000    0.0000 C   0  0  0  0  0  0  0  0  0  0  0  0
    0.0000    0.0000    0.0000 C   0  0  0  0  0  0  0  0  0  0  0  0
    0.0000    0.0000    0.0000 C   0  0  0  0  0  0  0  0  0  0  0  0
    0.0000    0.0000    0.0000 C   0  0  0  0  0  0  0  0  0  0  0  0
    0.0000    0.0000    0.0000 O   0  0  0  0  0  0  0  0  0  0  0  0
    0.0000    0.0000    0.0000 C   0  0  0  0  0  0  0  0  0  0  0  0
    0.0000    0.0000    0.0000 C   0  0  0  0  0  0  0  0  0  0  0  0
    0.0000    0.0000    0.0000 C   0  0  0  0  0  0  0  0  0  0  0  0
    0.0000    0.0000    0.0000 C   0  0  0  0  0  0  0  0  0  0  0  0
    0.0000    0.0000    0.0000 O   0  0  0  0  0  0  0  0  0  0  0  0
    0.0000    0.0000    0.0000 N   0  0  0  0  0  0  0  0  0  0  0  0
    0.0000    0.0000    0.0000 C   0  0  0  0  0  0  0  0  0  0  0  0
    0.0000    0.0000    0.0000 C   0  0  0  0  0  0  0  0  0  0  0  0
    0.0000    0.0000    0.0000 C   0  0  0  0  0  0  0  0  0  0  0  0
    0.0000    0.0000    0.0000 C   0  0  0  0  0  0  0  0  0  0  0  0
    0.0000    0.0000    0.0000 N   0  0  0  0  0  0  0  0  0  0  0  0
    0.0000    0.0000    0.0000 C   0  0  0  0  0  0  0  0  0  0  0  0
    0.0000    0.0000    0.0000 C   0  0  0  0  0  0  0  0  0  0  0  0
    0.0000    0.0000    0.0000 C   0  0  0  0  0  0  0  0  0  0  0  0
    0.0000    0.0000    0.0000 C   0  0  0  0  0  0  0  0  0  0  0  0
    0.0000    0.0000    0.0000 C   0  0  0  0  0  0  0  0  0  0  0  0
    0.0000    0.0000    0.0000 C   0  0  0  0  0  0  0  0  0  0  0  0
    0.0000    0.0000    0.0000 C   0  0  0  0  0  0  0  0  0  0  0  0
    0.0000    0.0000    0.0000 O   0  0  0  0  0  0  0  0  0  0  0  0
    0.0000    0.0000    0.0000 N   0  0  0  0  0  0  0  0  0  0  0  0
    0.0000    0.0000    0.0000 C   0  0  0  0  0  0  0  0  0  0  0  0
    0.0000    0.0000    0.0000 C   0  0  0  0  0  0  0  0  0  0  0  0
    0.0000    0.0000    0.0000 C   0  0  0  0  0  0  0  0  0  0  0  0
    0.0000    0.0000    0.0000 C   0  0  0  0  0  0  0  0  0  0  0  0
    0.0000    0.0000    0.0000 C   0  0  0  0  0  0  0  0  0  0  0  0
    0.0000    0.0000    0.0000 C   0  0  0  0  0  0  0  0  0  0  0  0
    0.0000    0.0000    0.0000 C   0  0  0  0  0  0  0  0  0  0  0  0
    0.0000    0.0000    0.0000 C   0  0  0  0  0  0  0  0  0  0  0  0
    0.0000    0.0000    0.0000 F   0  0  0  0  0  0  0  0  0  0  0  0
    0.0000    0.0000    0.0000 F   0  0  0  0  0  0  0  0  0  0  0  0
    0.0000    0.0000    0.0000 F   0  0  0  0  0  0  0  0  0  0  0  0
    0.0000    0.0000    0.0000 C   0  0  0  0  0  0  0  0  0  0  0  0
    0.0000    0.0000    0.0000 F   0  0  0  0  0  0  0  0  0  0  0  0
    0.0000    0.0000    0.0000 F   0  0  0  0  0  0  0  0  0  0  0  0
    0.0000    0.0000    0.0000 F   0  0  0  0  0  0  0  0  0  0  0  0
  1  2  1  0
  2  3  1  0
  2  4  1  0
  4  5  1  0
  5  6  1  0
  6  7  1  0
  7  8  2  0
  7  9  1  0
  9 10  1  0
 10 11  1  0
 11 12  1  0
 12 13  1  0
 13 14  1  0
 14 15  2  0
 14 16  1  0
 16 17  1  0
 17 18  1  0
 18 19  2  0
 19 20  1  0
 20 21  2  0
 21 22  1  0
 21 23  1  0
 23 24  2  0
 16 25  1  0
 25 26  1  0
 26 27  2  0
 26 28  1  0
 28 29  1  0
 29 30  1  0
 30 31  2  0
 30 32  1  0
 32 33  1  0
 32 34  1  0
 34 35  1  0
 35 36  2  0
 35 37  1  0
 37 38  1  0
 37 39  1  0
 39 40  1  0
 40 41  2  0
 41 42  1  0
 41 43  1  0
 43 44  2  0
 44 45  1  0
 44 46  1  0
 46 47  2  0
 47 48  1  0
  5 49  1  0
 49 50  2  0
 49 51  1  0
 51 52  1  0
 52 53  1  0
 53 54  1  0
 54 55  2  0
 55 56  1  0
 56 57  1  0
 57 58  2  0
 58 59  1  0
 59 60  2  0
 60 61  1  0
 61 62  2  0
 52 63  1  0
 63 64  2  0
 63 65  1  0
 65 66  1  0
 66 67  1  0
 67 68  2  0
 68 69  1  0
 69 70  2  0
 70 71  1  0
 71 72  2  0
 71 73  1  0
 73 74  1  0
 73 75  1  0
 73 76  1  0
 69 77  1  0
 77 78  1  0
 77 79  1  0
 77 80  1  0
 13  9  1  0
 24 18  1  0
 47 40  1  0
 62 54  1  0
 62 57  1  0
 72 67  1  0
M  END
>  <pIC50>  (828) 
7.96

>  <ChEMBL_ID>  (828) 
CHEMBL3735058

>  <document_journal>  (828) 
J. Med. Chem.

>  <bao_endpoint>  (828) 
BAO_0000190

>  <potential_duplicate>  (828) 
None

>  <uo_units>  (828) 
UO_0000065

>  <canonical_smiles>  (828) 
CC(C)C[C@H](NC(=O)[C@@H]1CCCN1C(=O)[C@H](Cc2ccc(Br)cc2)NC(=O)CNC(=O)[C@@H](C)NC(=O)[C@@H](N)Cc3c(C)cc(O)cc3C)C(=O)N[C@@H](Cc4c[nH]c5ccccc45)C(=O)NCc6cc(cc(c6)C(F)(F)F)C(F)(F)F

>  <parent_molecule_chembl_id>  (828) 
CHEMBL3735058

>  <assay_type>  (828) 
B

>  <src_id>  (828) 
1

>  <ligand_efficiency>  (828) 
None

>  <standard_flag>  (828) 
True

>  <molecule_chembl_id>  (828) 
CHEMBL3735058

>  <target_organism>  (828) 
Homo sapiens

>  <standard_units>  (828) 
nM

>  <record_id>  (828) 
2736460

>  <document_chembl_id>  (828) 
CHEMBL3734657

>  <bao_format>  (828) 
None

>  <data_validity_description>  (828) 
None

>  <activity_id>  (828) 
16392808

>  <standard_type>  (828) 
IC50

>  <target_chembl_id>  (828) 
CHEMBL233

>  <data_validity_comment>  (828) 
None

>  <published_value>  (828) 
7.96

>  <document_year>  (828) 
2015

>  <target_pref_name>  (828) 
Mu opioid receptor

>  <assay_chembl_id>  (828) 
CHEMBL3738443

>  <standard_relation>  (828) 
=

>  <assay_description>  (828) 
Binding affinity to mu opioid receptor (unknown origin)

>  <published_relation>  (828) 
=

>  <standard_value>  (828) 
10.96

>  <qudt_units>  (828) 
http://www.openphacts.org/units/Nanomolar

>  <target_tax_id>  (828) 
9606

>  <bao_label>  (828) 
None

>  <published_units>  (828) 
None

>  <pchembl_value>  (828) 
7.96

>  <published_type>  (828) 
pIC50

>  <activity_comment>  (828) 
None

$$$$

     RDKit          

 40 41  0  0  0  0  0  0  0  0999 V2000
    0.0000    0.0000    0.0000 C   0  0  0  0  0  0  0  0  0  0  0  0
    0.0000    0.0000    0.0000 S   0  0  0  0  0  0  0  0  0  0  0  0
    0.0000    0.0000    0.0000 C   0  0  0  0  0  0  0  0  0  0  0  0
    0.0000    0.0000    0.0000 C   0  0  0  0  0  0  0  0  0  0  0  0
    0.0000    0.0000    0.0000 C   0  0  0  0  0  0  0  0  0  0  0  0
    0.0000    0.0000    0.0000 N   0  0  0  0  0  0  0  0  0  0  0  0
    0.0000    0.0000    0.0000 C   0  0  0  0  0  0  0  0  0  0  0  0
    0.0000    0.0000    0.0000 O   0  0  0  0  0  0  0  0  0  0  0  0
    0.0000    0.0000    0.0000 C   0  0  0  0  0  0  0  0  0  0  0  0
    0.0000    0.0000    0.0000 C   0  0  0  0  0  0  0  0  0  0  0  0
    0.0000    0.0000    0.0000 C   0  0  0  0  0  0  0  0  0  0  0  0
    0.0000    0.0000    0.0000 C   0  0  0  0  0  0  0  0  0  0  0  0
    0.0000    0.0000    0.0000 C   0  0  0  0  0  0  0  0  0  0  0  0
    0.0000    0.0000    0.0000 C   0  0  0  0  0  0  0  0  0  0  0  0
    0.0000    0.0000    0.0000 C   0  0  0  0  0  0  0  0  0  0  0  0
    0.0000    0.0000    0.0000 C   0  0  0  0  0  0  0  0  0  0  0  0
    0.0000    0.0000    0.0000 N   0  0  0  0  0  0  0  0  0  0  0  0
    0.0000    0.0000    0.0000 C   0  0  0  0  0  0  0  0  0  0  0  0
    0.0000    0.0000    0.0000 O   0  0  0  0  0  0  0  0  0  0  0  0
    0.0000    0.0000    0.0000 C   0  0  0  0  0  0  0  0  0  0  0  0
    0.0000    0.0000    0.0000 N   0  0  0  0  0  0  0  0  0  0  0  0
    0.0000    0.0000    0.0000 C   0  0  0  0  0  0  0  0  0  0  0  0
    0.0000    0.0000    0.0000 O   0  0  0  0  0  0  0  0  0  0  0  0
    0.0000    0.0000    0.0000 C   0  0  0  0  0  0  0  0  0  0  0  0
    0.0000    0.0000    0.0000 N   0  0  0  0  0  0  0  0  0  0  0  0
    0.0000    0.0000    0.0000 C   0  0  0  0  0  0  0  0  0  0  0  0
    0.0000    0.0000    0.0000 O   0  0  0  0  0  0  0  0  0  0  0  0
    0.0000    0.0000    0.0000 C   0  0  0  0  0  0  0  0  0  0  0  0
    0.0000    0.0000    0.0000 N   0  0  0  0  0  0  0  0  0  0  0  0
    0.0000    0.0000    0.0000 C   0  0  0  0  0  0  0  0  0  0  0  0
    0.0000    0.0000    0.0000 C   0  0  0  0  0  0  0  0  0  0  0  0
    0.0000    0.0000    0.0000 C   0  0  0  0  0  0  0  0  0  0  0  0
    0.0000    0.0000    0.0000 C   0  0  0  0  0  0  0  0  0  0  0  0
    0.0000    0.0000    0.0000 C   0  0  0  0  0  0  0  0  0  0  0  0
    0.0000    0.0000    0.0000 O   0  0  0  0  0  0  0  0  0  0  0  0
    0.0000    0.0000    0.0000 C   0  0  0  0  0  0  0  0  0  0  0  0
    0.0000    0.0000    0.0000 C   0  0  0  0  0  0  0  0  0  0  0  0
    0.0000    0.0000    0.0000 C   0  0  0  0  0  0  0  0  0  0  0  0
    0.0000    0.0000    0.0000 O   0  0  0  0  0  0  0  0  0  0  0  0
    0.0000    0.0000    0.0000 O   0  0  0  0  0  0  0  0  0  0  0  0
  1  2  1  0
  2  3  1  0
  3  4  1  0
  4  5  1  0
  5  6  1  0
  6  7  1  0
  7  8  2  0
  7  9  1  0
  9 10  1  0
 10 11  1  0
 11 12  2  0
 12 13  1  0
 13 14  2  0
 14 15  1  0
 15 16  2  0
  9 17  1  0
 17 18  1  0
 18 19  2  0
 18 20  1  0
 20 21  1  0
 21 22  1  0
 22 23  2  0
 22 24  1  0
 24 25  1  0
 25 26  1  0
 26 27  2  0
 26 28  1  0
 28 29  1  0
 28 30  1  0
 30 31  1  0
 31 32  2  0
 32 33  1  0
 33 34  2  0
 34 35  1  0
 34 36  1  0
 36 37  2  0
  5 38  1  0
 38 39  2  0
 38 40  1  0
 16 11  1  0
 37 31  1  0
M  END
>  <pIC50>  (829) 
7.89

>  <ChEMBL_ID>  (829) 
CHEMBL13786

>  <document_journal>  (829) 
J. Med. Chem.

>  <bao_endpoint>  (829) 
BAO_0000190

>  <potential_duplicate>  (829) 
None

>  <uo_units>  (829) 
UO_0000065

>  <canonical_smiles>  (829) 
CSCC[C@H](NC(=O)[C@H](Cc1ccccc1)NC(=O)CNC(=O)CNC(=O)[C@@H](N)Cc2ccc(O)cc2)C(=O)O

>  <parent_molecule_chembl_id>  (829) 
CHEMBL13786

>  <assay_type>  (829) 
B

>  <src_id>  (829) 
1

>  <ligand_efficiency>  (829) 
None

>  <standard_flag>  (829) 
True

>  <molecule_chembl_id>  (829) 
CHEMBL13786

>  <target_organism>  (829) 
Homo sapiens

>  <standard_units>  (829) 
nM

>  <record_id>  (829) 
2736462

>  <document_chembl_id>  (829) 
CHEMBL3734657

>  <bao_format>  (829) 
None

>  <data_validity_description>  (829) 
None

>  <activity_id>  (829) 
16392870

>  <standard_type>  (829) 
IC50

>  <target_chembl_id>  (829) 
CHEMBL233

>  <data_validity_comment>  (829) 
None

>  <published_value>  (829) 
13

>  <document_year>  (829) 
2015

>  <target_pref_name>  (829) 
Mu opioid receptor

>  <assay_chembl_id>  (829) 
CHEMBL3738454

>  <standard_relation>  (829) 
=

>  <assay_description>  (829) 
Agonist activity at mu opioid receptor (unknown origin) expressed in HEK293 cells assessed as inhibition of forskolin-induced cAMP accumulation by bioluminescent assay

>  <published_relation>  (829) 
=

>  <standard_value>  (829) 
13

>  <qudt_units>  (829) 
http://www.openphacts.org/units/Nanomolar

>  <target_tax_id>  (829) 
9606

>  <bao_label>  (829) 
None

>  <published_units>  (829) 
nM

>  <pchembl_value>  (829) 
7.89

>  <published_type>  (829) 
IC50

>  <activity_comment>  (829) 
None

$$$$

     RDKit          

 58 61  0  0  0  0  0  0  0  0999 V2000
    0.0000    0.0000    0.0000 C   0  0  0  0  0  0  0  0  0  0  0  0
    0.0000    0.0000    0.0000 C   0  0  0  0  0  0  0  0  0  0  0  0
    0.0000    0.0000    0.0000 N   0  0  0  0  0  0  0  0  0  0  0  0
    0.0000    0.0000    0.0000 C   0  0  0  0  0  0  0  0  0  0  0  0
    0.0000    0.0000    0.0000 O   0  0  0  0  0  0  0  0  0  0  0  0
    0.0000    0.0000    0.0000 C   0  0  0  0  0  0  0  0  0  0  0  0
    0.0000    0.0000    0.0000 N   0  0  0  0  0  0  0  0  0  0  0  0
    0.0000    0.0000    0.0000 C   0  0  0  0  0  0  0  0  0  0  0  0
    0.0000    0.0000    0.0000 C   0  0  0  0  0  0  0  0  0  0  0  0
    0.0000    0.0000    0.0000 C   0  0  0  0  0  0  0  0  0  0  0  0
    0.0000    0.0000    0.0000 C   0  0  0  0  0  0  0  0  0  0  0  0
    0.0000    0.0000    0.0000 C   0  0  0  0  0  0  0  0  0  0  0  0
    0.0000    0.0000    0.0000 O   0  0  0  0  0  0  0  0  0  0  0  0
    0.0000    0.0000    0.0000 C   0  0  0  0  0  0  0  0  0  0  0  0
    0.0000    0.0000    0.0000 C   0  0  0  0  0  0  0  0  0  0  0  0
    0.0000    0.0000    0.0000 C   0  0  0  0  0  0  0  0  0  0  0  0
    0.0000    0.0000    0.0000 O   0  0  0  0  0  0  0  0  0  0  0  0
    0.0000    0.0000    0.0000 N   0  0  0  0  0  0  0  0  0  0  0  0
    0.0000    0.0000    0.0000 C   0  0  0  0  0  0  0  0  0  0  0  0
    0.0000    0.0000    0.0000 C   0  0  0  0  0  0  0  0  0  0  0  0
    0.0000    0.0000    0.0000 C   0  0  0  0  0  0  0  0  0  0  0  0
    0.0000    0.0000    0.0000 C   0  0  0  0  0  0  0  0  0  0  0  0
    0.0000    0.0000    0.0000 C   0  0  0  0  0  0  0  0  0  0  0  0
    0.0000    0.0000    0.0000 C   0  0  0  0  0  0  0  0  0  0  0  0
    0.0000    0.0000    0.0000 C   0  0  0  0  0  0  0  0  0  0  0  0
    0.0000    0.0000    0.0000 C   0  0  0  0  0  0  0  0  0  0  0  0
    0.0000    0.0000    0.0000 C   0  0  0  0  0  0  0  0  0  0  0  0
    0.0000    0.0000    0.0000 O   0  0  0  0  0  0  0  0  0  0  0  0
    0.0000    0.0000    0.0000 N   0  0  0  0  0  0  0  0  0  0  0  0
    0.0000    0.0000    0.0000 C   0  0  0  0  0  0  0  0  0  0  0  0
    0.0000    0.0000    0.0000 C   0  0  0  0  0  0  0  0  0  0  0  0
    0.0000    0.0000    0.0000 O   0  0  0  0  0  0  0  0  0  0  0  0
    0.0000    0.0000    0.0000 N   0  0  0  0  0  0  0  0  0  0  0  0
    0.0000    0.0000    0.0000 C   0  0  0  0  0  0  0  0  0  0  0  0
    0.0000    0.0000    0.0000 C   0  0  0  0  0  0  0  0  0  0  0  0
    0.0000    0.0000    0.0000 C   0  0  0  0  0  0  0  0  0  0  0  0
    0.0000    0.0000    0.0000 C   0  0  0  0  0  0  0  0  0  0  0  0
    0.0000    0.0000    0.0000 C   0  0  0  0  0  0  0  0  0  0  0  0
    0.0000    0.0000    0.0000 C   0  0  0  0  0  0  0  0  0  0  0  0
    0.0000    0.0000    0.0000 O   0  0  0  0  0  0  0  0  0  0  0  0
    0.0000    0.0000    0.0000 C   0  0  0  0  0  0  0  0  0  0  0  0
    0.0000    0.0000    0.0000 C   0  0  0  0  0  0  0  0  0  0  0  0
    0.0000    0.0000    0.0000 C   0  0  0  0  0  0  0  0  0  0  0  0
    0.0000    0.0000    0.0000 O   0  0  0  0  0  0  0  0  0  0  0  0
    0.0000    0.0000    0.0000 N   0  0  0  0  0  0  0  0  0  0  0  0
    0.0000    0.0000    0.0000 C   0  0  0  0  0  0  0  0  0  0  0  0
    0.0000    0.0000    0.0000 C   0  0  0  0  0  0  0  0  0  0  0  0
    0.0000    0.0000    0.0000 C   0  0  0  0  0  0  0  0  0  0  0  0
    0.0000    0.0000    0.0000 C   0  0  0  0  0  0  0  0  0  0  0  0
    0.0000    0.0000    0.0000 C   0  0  0  0  0  0  0  0  0  0  0  0
    0.0000    0.0000    0.0000 O   0  0  0  0  0  0  0  0  0  0  0  0
    0.0000    0.0000    0.0000 N   0  0  0  0  0  0  0  0  0  0  0  0
    0.0000    0.0000    0.0000 C   0  0  0  0  0  0  0  0  0  0  0  0
    0.0000    0.0000    0.0000 C   0  0  0  0  0  0  0  0  0  0  0  0
    0.0000    0.0000    0.0000 O   0  0  0  0  0  0  0  0  0  0  0  0
    0.0000    0.0000    0.0000 C   0  0  0  0  0  0  0  0  0  0  0  0
    0.0000    0.0000    0.0000 O   0  0  0  0  0  0  0  0  0  0  0  0
    0.0000    0.0000    0.0000 N   0  0  0  0  0  0  0  0  0  0  0  0
  1  2  1  0
  2  3  1  0
  3  4  1  0
  4  5  2  0
  4  6  1  0
  6  7  1  0
  6  8  1  0
  8  9  1  0
  9 10  2  0
 10 11  1  0
 11 12  2  0
 12 13  1  0
 12 14  1  0
 14 15  2  0
  2 16  1  0
 16 17  2  0
 16 18  1  0
 18 19  1  0
 19 20  1  0
 20 21  1  0
 21 22  2  0
 22 23  1  0
 23 24  2  0
 24 25  1  0
 25 26  2  0
 19 27  1  0
 27 28  2  0
 27 29  1  0
 29 30  1  0
 30 31  1  0
 31 32  2  0
 31 33  1  0
 33 34  1  0
 34 35  1  0
 35 36  1  0
 36 37  2  0
 37 38  1  0
 38 39  2  0
 39 40  1  0
 39 41  1  0
 41 42  2  0
 34 43  1  0
 43 44  2  0
 43 45  1  0
 45 46  1  0
 46 47  1  0
 47 48  1  0
 48 49  1  0
 49 50  1  0
 50 51  2  0
 50 52  1  0
 52 53  1  0
 53 54  1  0
 54 55  1  0
 53 56  1  0
 56 57  2  0
 56 58  1  0
 15  9  1  0
 26 21  1  0
 42 36  1  0
 49 45  1  0
M  END
>  <pIC50>  (830) 
7.44

>  <ChEMBL_ID>  (830) 
CHEMBL285479

>  <document_journal>  (830) 
Eur. J. Med. Chem.

>  <bao_endpoint>  (830) 
BAO_0000190

>  <potential_duplicate>  (830) 
None

>  <uo_units>  (830) 
UO_0000065

>  <canonical_smiles>  (830) 
C[C@H](NC(=O)[C@@H](N)Cc1ccc(O)cc1)C(=O)N[C@@H](Cc2ccccc2)C(=O)NCC(=O)N[C@@H](Cc3ccc(O)cc3)C(=O)N4CCC[C@H]4C(=O)N[C@@H](CO)C(=O)N

>  <parent_molecule_chembl_id>  (830) 
CHEMBL285479

>  <assay_type>  (830) 
B

>  <src_id>  (830) 
1

>  <ligand_efficiency>  (830) 
None

>  <standard_flag>  (830) 
True

>  <molecule_chembl_id>  (830) 
CHEMBL285479

>  <target_organism>  (830) 
Homo sapiens

>  <standard_units>  (830) 
nM

>  <record_id>  (830) 
2748539

>  <document_chembl_id>  (830) 
CHEMBL3758122

>  <bao_format>  (830) 
None

>  <data_validity_description>  (830) 
None

>  <activity_id>  (830) 
16458071

>  <standard_type>  (830) 
IC50

>  <target_chembl_id>  (830) 
CHEMBL233

>  <data_validity_comment>  (830) 
None

>  <published_value>  (830) 
36.7

>  <document_year>  (830) 
2016

>  <target_pref_name>  (830) 
Mu opioid receptor

>  <assay_chembl_id>  (830) 
CHEMBL3762577

>  <standard_relation>  (830) 
=

>  <assay_description>  (830) 
Binding affinity at mu opioid receptor (unknown origin)

>  <published_relation>  (830) 
=

>  <standard_value>  (830) 
36.7

>  <qudt_units>  (830) 
http://www.openphacts.org/units/Nanomolar

>  <target_tax_id>  (830) 
9606

>  <bao_label>  (830) 
None

>  <published_units>  (830) 
nM

>  <pchembl_value>  (830) 
7.44

>  <published_type>  (830) 
IC50

>  <activity_comment>  (830) 
None

$$$$

     RDKit          

 48 50  0  0  0  0  0  0  0  0999 V2000
    0.0000    0.0000    0.0000 N   0  0  0  0  0  0  0  0  0  0  0  0
    0.0000    0.0000    0.0000 C   0  0  0  0  0  0  0  0  0  0  0  0
    0.0000    0.0000    0.0000 C   0  0  0  0  0  0  0  0  0  0  0  0
    0.0000    0.0000    0.0000 C   0  0  0  0  0  0  0  0  0  0  0  0
    0.0000    0.0000    0.0000 C   0  0  0  0  0  0  0  0  0  0  0  0
    0.0000    0.0000    0.0000 C   0  0  0  0  0  0  0  0  0  0  0  0
    0.0000    0.0000    0.0000 C   0  0  0  0  0  0  0  0  0  0  0  0
    0.0000    0.0000    0.0000 O   0  0  0  0  0  0  0  0  0  0  0  0
    0.0000    0.0000    0.0000 C   0  0  0  0  0  0  0  0  0  0  0  0
    0.0000    0.0000    0.0000 C   0  0  0  0  0  0  0  0  0  0  0  0
    0.0000    0.0000    0.0000 C   0  0  0  0  0  0  0  0  0  0  0  0
    0.0000    0.0000    0.0000 O   0  0  0  0  0  0  0  0  0  0  0  0
    0.0000    0.0000    0.0000 N   0  0  0  0  0  0  0  0  0  0  0  0
    0.0000    0.0000    0.0000 C   0  0  0  0  0  0  0  0  0  0  0  0
    0.0000    0.0000    0.0000 C   0  0  0  0  0  0  0  0  0  0  0  0
    0.0000    0.0000    0.0000 C   0  0  0  0  0  0  0  0  0  0  0  0
    0.0000    0.0000    0.0000 C   0  0  0  0  0  0  0  0  0  0  0  0
    0.0000    0.0000    0.0000 C   0  0  0  0  0  0  0  0  0  0  0  0
    0.0000    0.0000    0.0000 N   0  0  0  0  0  0  0  0  0  0  0  0
    0.0000    0.0000    0.0000 C   0  0  0  0  0  0  0  0  0  0  0  0
    0.0000    0.0000    0.0000 O   0  0  0  0  0  0  0  0  0  0  0  0
    0.0000    0.0000    0.0000 C   0  0  0  0  0  0  0  0  0  0  0  0
    0.0000    0.0000    0.0000 N   0  0  0  0  0  0  0  0  0  0  0  0
    0.0000    0.0000    0.0000 C   0  0  0  0  0  0  0  0  0  0  0  0
    0.0000    0.0000    0.0000 O   0  0  0  0  0  0  0  0  0  0  0  0
    0.0000    0.0000    0.0000 C   0  0  0  0  0  0  0  0  0  0  0  0
    0.0000    0.0000    0.0000 C   0  0  0  0  0  0  0  0  0  0  0  0
    0.0000    0.0000    0.0000 C   0  0  0  0  0  0  0  0  0  0  0  0
    0.0000    0.0000    0.0000 C   0  0  0  0  0  0  0  0  0  0  0  0
    0.0000    0.0000    0.0000 C   0  0  0  0  0  0  0  0  0  0  0  0
    0.0000    0.0000    0.0000 C   0  0  0  0  0  0  0  0  0  0  0  0
    0.0000    0.0000    0.0000 O   0  0  0  0  0  0  0  0  0  0  0  0
    0.0000    0.0000    0.0000 C   0  0  0  0  0  0  0  0  0  0  0  0
    0.0000    0.0000    0.0000 C   0  0  0  0  0  0  0  0  0  0  0  0
    0.0000    0.0000    0.0000 N   0  0  0  0  0  0  0  0  0  0  0  0
    0.0000    0.0000    0.0000 C   0  0  0  0  0  0  0  0  0  0  0  0
    0.0000    0.0000    0.0000 O   0  0  0  0  0  0  0  0  0  0  0  0
    0.0000    0.0000    0.0000 C   0  0  0  0  0  0  0  0  0  0  0  0
    0.0000    0.0000    0.0000 C   0  0  0  0  0  0  0  0  0  0  0  0
    0.0000    0.0000    0.0000 C   0  0  0  0  0  0  0  0  0  0  0  0
    0.0000    0.0000    0.0000 C   0  0  0  0  0  0  0  0  0  0  0  0
    0.0000    0.0000    0.0000 N   0  0  0  0  0  0  0  0  0  0  0  0
    0.0000    0.0000    0.0000 C   0  0  0  0  0  0  0  0  0  0  0  0
    0.0000    0.0000    0.0000 O   0  0  0  0  0  0  0  0  0  0  0  0
    0.0000    0.0000    0.0000 N   0  0  0  0  0  0  0  0  0  0  0  0
    0.0000    0.0000    0.0000 N   0  0  0  0  0  0  0  0  0  0  0  0
    0.0000    0.0000    0.0000 C   0  0  0  0  0  0  0  0  0  0  0  0
    0.0000    0.0000    0.0000 O   0  0  0  0  0  0  0  0  0  0  0  0
  1  2  1  0
  2  3  1  0
  3  4  1  0
  4  5  2  0
  5  6  1  0
  6  7  2  0
  7  8  1  0
  7  9  1  0
  9 10  2  0
  2 11  1  0
 11 12  2  0
 11 13  1  0
 13 14  1  0
 14 15  1  0
 15 16  1  0
 16 17  1  0
 17 18  1  0
 18 19  1  0
 19 20  1  0
 20 21  2  0
 20 22  1  0
 22 23  1  0
 23 24  1  0
 24 25  2  0
 24 26  1  0
 26 27  1  0
 27 28  1  0
 28 29  2  0
 29 30  1  0
 30 31  2  0
 31 32  1  0
 31 33  1  0
 33 34  2  0
 26 35  1  0
 35 36  1  0
 36 37  2  0
 36 38  1  0
 38 39  1  0
 39 40  1  0
 40 41  1  0
 41 42  1  0
 42 43  1  0
 43 44  2  0
 43 45  1  0
 38 46  1  0
 46 47  1  0
 47 48  2  0
 10  4  1  0
 47 14  1  0
 34 28  1  0
M  END
>  <pIC50>  (831) 
7.18

>  <ChEMBL_ID>  (831) 
CHEMBL3764157

>  <document_journal>  (831) 
J. Med. Chem.

>  <bao_endpoint>  (831) 
BAO_0000190

>  <potential_duplicate>  (831) 
None

>  <uo_units>  (831) 
UO_0000065

>  <canonical_smiles>  (831) 
N[C@@H](Cc1ccc(O)cc1)C(=O)N[C@@H]2CCCCNC(=O)CNC(=O)[C@H](Cc3ccc(O)cc3)NC(=O)[C@H](CCCNC(=O)N)NC2=O

>  <parent_molecule_chembl_id>  (831) 
CHEMBL3764157

>  <assay_type>  (831) 
B

>  <src_id>  (831) 
1

>  <ligand_efficiency>  (831) 
None

>  <standard_flag>  (831) 
True

>  <molecule_chembl_id>  (831) 
CHEMBL3764157

>  <target_organism>  (831) 
Homo sapiens

>  <standard_units>  (831) 
nM

>  <record_id>  (831) 
2757929

>  <document_chembl_id>  (831) 
CHEMBL3763066

>  <bao_format>  (831) 
None

>  <data_validity_description>  (831) 
None

>  <activity_id>  (831) 
16480526

>  <standard_type>  (831) 
IC50

>  <target_chembl_id>  (831) 
CHEMBL233

>  <data_validity_comment>  (831) 
None

>  <published_value>  (831) 
66.9

>  <document_year>  (831) 
2016

>  <target_pref_name>  (831) 
Mu opioid receptor

>  <assay_chembl_id>  (831) 
CHEMBL3766870

>  <standard_relation>  (831) 
=

>  <assay_description>  (831) 
Agonist activity at human MOR expressed in CHO cells assessed as induction of membrane potential change measured every 3 secs for 30 secs by fluorescent membrane potential assay

>  <published_relation>  (831) 
=

>  <standard_value>  (831) 
66.9

>  <qudt_units>  (831) 
http://www.openphacts.org/units/Nanomolar

>  <target_tax_id>  (831) 
9606

>  <bao_label>  (831) 
None

>  <published_units>  (831) 
nM

>  <pchembl_value>  (831) 
7.18

>  <published_type>  (831) 
IC50

>  <activity_comment>  (831) 
None

$$$$

     RDKit          

 48 50  0  0  0  0  0  0  0  0999 V2000
    0.0000    0.0000    0.0000 N   0  0  0  0  0  0  0  0  0  0  0  0
    0.0000    0.0000    0.0000 C   0  0  0  0  0  0  0  0  0  0  0  0
    0.0000    0.0000    0.0000 C   0  0  0  0  0  0  0  0  0  0  0  0
    0.0000    0.0000    0.0000 C   0  0  0  0  0  0  0  0  0  0  0  0
    0.0000    0.0000    0.0000 C   0  0  0  0  0  0  0  0  0  0  0  0
    0.0000    0.0000    0.0000 C   0  0  0  0  0  0  0  0  0  0  0  0
    0.0000    0.0000    0.0000 C   0  0  0  0  0  0  0  0  0  0  0  0
    0.0000    0.0000    0.0000 O   0  0  0  0  0  0  0  0  0  0  0  0
    0.0000    0.0000    0.0000 C   0  0  0  0  0  0  0  0  0  0  0  0
    0.0000    0.0000    0.0000 C   0  0  0  0  0  0  0  0  0  0  0  0
    0.0000    0.0000    0.0000 C   0  0  0  0  0  0  0  0  0  0  0  0
    0.0000    0.0000    0.0000 O   0  0  0  0  0  0  0  0  0  0  0  0
    0.0000    0.0000    0.0000 N   0  0  0  0  0  0  0  0  0  0  0  0
    0.0000    0.0000    0.0000 C   0  0  0  0  0  0  0  0  0  0  0  0
    0.0000    0.0000    0.0000 C   0  0  0  0  0  0  0  0  0  0  0  0
    0.0000    0.0000    0.0000 C   0  0  0  0  0  0  0  0  0  0  0  0
    0.0000    0.0000    0.0000 C   0  0  0  0  0  0  0  0  0  0  0  0
    0.0000    0.0000    0.0000 C   0  0  0  0  0  0  0  0  0  0  0  0
    0.0000    0.0000    0.0000 N   0  0  0  0  0  0  0  0  0  0  0  0
    0.0000    0.0000    0.0000 C   0  0  0  0  0  0  0  0  0  0  0  0
    0.0000    0.0000    0.0000 O   0  0  0  0  0  0  0  0  0  0  0  0
    0.0000    0.0000    0.0000 C   0  0  0  0  0  0  0  0  0  0  0  0
    0.0000    0.0000    0.0000 N   0  0  0  0  0  0  0  0  0  0  0  0
    0.0000    0.0000    0.0000 C   0  0  0  0  0  0  0  0  0  0  0  0
    0.0000    0.0000    0.0000 O   0  0  0  0  0  0  0  0  0  0  0  0
    0.0000    0.0000    0.0000 C   0  0  0  0  0  0  0  0  0  0  0  0
    0.0000    0.0000    0.0000 C   0  0  0  0  0  0  0  0  0  0  0  0
    0.0000    0.0000    0.0000 C   0  0  0  0  0  0  0  0  0  0  0  0
    0.0000    0.0000    0.0000 C   0  0  0  0  0  0  0  0  0  0  0  0
    0.0000    0.0000    0.0000 C   0  0  0  0  0  0  0  0  0  0  0  0
    0.0000    0.0000    0.0000 C   0  0  0  0  0  0  0  0  0  0  0  0
    0.0000    0.0000    0.0000 O   0  0  0  0  0  0  0  0  0  0  0  0
    0.0000    0.0000    0.0000 C   0  0  0  0  0  0  0  0  0  0  0  0
    0.0000    0.0000    0.0000 C   0  0  0  0  0  0  0  0  0  0  0  0
    0.0000    0.0000    0.0000 N   0  0  0  0  0  0  0  0  0  0  0  0
    0.0000    0.0000    0.0000 C   0  0  0  0  0  0  0  0  0  0  0  0
    0.0000    0.0000    0.0000 O   0  0  0  0  0  0  0  0  0  0  0  0
    0.0000    0.0000    0.0000 C   0  0  0  0  0  0  0  0  0  0  0  0
    0.0000    0.0000    0.0000 C   0  0  0  0  0  0  0  0  0  0  0  0
    0.0000    0.0000    0.0000 C   0  0  0  0  0  0  0  0  0  0  0  0
    0.0000    0.0000    0.0000 C   0  0  0  0  0  0  0  0  0  0  0  0
    0.0000    0.0000    0.0000 N   0  0  0  0  0  0  0  0  0  0  0  0
    0.0000    0.0000    0.0000 C   0  0  0  0  0  0  0  0  0  0  0  0
    0.0000    0.0000    0.0000 N   0  0  0  0  0  0  0  0  0  0  0  0
    0.0000    0.0000    0.0000 N   0  0  0  0  0  0  0  0  0  0  0  0
    0.0000    0.0000    0.0000 N   0  0  0  0  0  0  0  0  0  0  0  0
    0.0000    0.0000    0.0000 C   0  0  0  0  0  0  0  0  0  0  0  0
    0.0000    0.0000    0.0000 O   0  0  0  0  0  0  0  0  0  0  0  0
  1  2  1  0
  2  3  1  0
  3  4  1  0
  4  5  2  0
  5  6  1  0
  6  7  2  0
  7  8  1  0
  7  9  1  0
  9 10  2  0
  2 11  1  0
 11 12  2  0
 11 13  1  0
 13 14  1  0
 14 15  1  0
 15 16  1  0
 16 17  1  0
 17 18  1  0
 18 19  1  0
 19 20  1  0
 20 21  2  0
 20 22  1  0
 22 23  1  0
 23 24  1  0
 24 25  2  0
 24 26  1  0
 26 27  1  0
 27 28  1  0
 28 29  2  0
 29 30  1  0
 30 31  2  0
 31 32  1  0
 31 33  1  0
 33 34  2  0
 26 35  1  0
 35 36  1  0
 36 37  2  0
 36 38  1  0
 38 39  1  0
 39 40  1  0
 40 41  1  0
 41 42  1  0
 42 43  1  0
 43 44  2  0
 43 45  1  0
 38 46  1  0
 46 47  1  0
 47 48  2  0
 10  4  1  0
 47 14  1  0
 34 28  1  0
M  END
>  <pIC50>  (832) 
6.88

>  <ChEMBL_ID>  (832) 
CHEMBL3765741

>  <document_journal>  (832) 
J. Med. Chem.

>  <bao_endpoint>  (832) 
BAO_0000190

>  <potential_duplicate>  (832) 
None

>  <uo_units>  (832) 
UO_0000065

>  <canonical_smiles>  (832) 
N[C@@H](Cc1ccc(O)cc1)C(=O)N[C@@H]2CCCCNC(=O)CNC(=O)[C@H](Cc3ccc(O)cc3)NC(=O)[C@H](CCCNC(=N)N)NC2=O

>  <parent_molecule_chembl_id>  (832) 
CHEMBL3765741

>  <assay_type>  (832) 
B

>  <src_id>  (832) 
1

>  <ligand_efficiency>  (832) 
None

>  <standard_flag>  (832) 
True

>  <molecule_chembl_id>  (832) 
CHEMBL3765741

>  <target_organism>  (832) 
Homo sapiens

>  <standard_units>  (832) 
nM

>  <record_id>  (832) 
2757928

>  <document_chembl_id>  (832) 
CHEMBL3763066

>  <bao_format>  (832) 
None

>  <data_validity_description>  (832) 
None

>  <activity_id>  (832) 
16480527

>  <standard_type>  (832) 
IC50

>  <target_chembl_id>  (832) 
CHEMBL233

>  <data_validity_comment>  (832) 
None

>  <published_value>  (832) 
130.7

>  <document_year>  (832) 
2016

>  <target_pref_name>  (832) 
Mu opioid receptor

>  <assay_chembl_id>  (832) 
CHEMBL3766870

>  <standard_relation>  (832) 
=

>  <assay_description>  (832) 
Agonist activity at human MOR expressed in CHO cells assessed as induction of membrane potential change measured every 3 secs for 30 secs by fluorescent membrane potential assay

>  <published_relation>  (832) 
=

>  <standard_value>  (832) 
130.7

>  <qudt_units>  (832) 
http://www.openphacts.org/units/Nanomolar

>  <target_tax_id>  (832) 
9606

>  <bao_label>  (832) 
None

>  <published_units>  (832) 
nM

>  <pchembl_value>  (832) 
6.88

>  <published_type>  (832) 
IC50

>  <activity_comment>  (832) 
None

$$$$

     RDKit          

 48 51  0  0  0  0  0  0  0  0999 V2000
    0.0000    0.0000    0.0000 N   0  0  0  0  0  0  0  0  0  0  0  0
    0.0000    0.0000    0.0000 C   0  0  0  0  0  0  0  0  0  0  0  0
    0.0000    0.0000    0.0000 C   0  0  0  0  0  0  0  0  0  0  0  0
    0.0000    0.0000    0.0000 C   0  0  0  0  0  0  0  0  0  0  0  0
    0.0000    0.0000    0.0000 C   0  0  0  0  0  0  0  0  0  0  0  0
    0.0000    0.0000    0.0000 C   0  0  0  0  0  0  0  0  0  0  0  0
    0.0000    0.0000    0.0000 C   0  0  0  0  0  0  0  0  0  0  0  0
    0.0000    0.0000    0.0000 O   0  0  0  0  0  0  0  0  0  0  0  0
    0.0000    0.0000    0.0000 C   0  0  0  0  0  0  0  0  0  0  0  0
    0.0000    0.0000    0.0000 C   0  0  0  0  0  0  0  0  0  0  0  0
    0.0000    0.0000    0.0000 C   0  0  0  0  0  0  0  0  0  0  0  0
    0.0000    0.0000    0.0000 O   0  0  0  0  0  0  0  0  0  0  0  0
    0.0000    0.0000    0.0000 N   0  0  0  0  0  0  0  0  0  0  0  0
    0.0000    0.0000    0.0000 C   0  0  0  0  0  0  0  0  0  0  0  0
    0.0000    0.0000    0.0000 C   0  0  0  0  0  0  0  0  0  0  0  0
    0.0000    0.0000    0.0000 C   0  0  0  0  0  0  0  0  0  0  0  0
    0.0000    0.0000    0.0000 C   0  0  0  0  0  0  0  0  0  0  0  0
    0.0000    0.0000    0.0000 C   0  0  0  0  0  0  0  0  0  0  0  0
    0.0000    0.0000    0.0000 N   0  0  0  0  0  0  0  0  0  0  0  0
    0.0000    0.0000    0.0000 C   0  0  0  0  0  0  0  0  0  0  0  0
    0.0000    0.0000    0.0000 O   0  0  0  0  0  0  0  0  0  0  0  0
    0.0000    0.0000    0.0000 C   0  0  0  0  0  0  0  0  0  0  0  0
    0.0000    0.0000    0.0000 N   0  0  0  0  0  0  0  0  0  0  0  0
    0.0000    0.0000    0.0000 C   0  0  0  0  0  0  0  0  0  0  0  0
    0.0000    0.0000    0.0000 O   0  0  0  0  0  0  0  0  0  0  0  0
    0.0000    0.0000    0.0000 C   0  0  0  0  0  0  0  0  0  0  0  0
    0.0000    0.0000    0.0000 C   0  0  0  0  0  0  0  0  0  0  0  0
    0.0000    0.0000    0.0000 C   0  0  0  0  0  0  0  0  0  0  0  0
    0.0000    0.0000    0.0000 C   0  0  0  0  0  0  0  0  0  0  0  0
    0.0000    0.0000    0.0000 C   0  0  0  0  0  0  0  0  0  0  0  0
    0.0000    0.0000    0.0000 C   0  0  0  0  0  0  0  0  0  0  0  0
    0.0000    0.0000    0.0000 O   0  0  0  0  0  0  0  0  0  0  0  0
    0.0000    0.0000    0.0000 C   0  0  0  0  0  0  0  0  0  0  0  0
    0.0000    0.0000    0.0000 C   0  0  0  0  0  0  0  0  0  0  0  0
    0.0000    0.0000    0.0000 N   0  0  0  0  0  0  0  0  0  0  0  0
    0.0000    0.0000    0.0000 C   0  0  0  0  0  0  0  0  0  0  0  0
    0.0000    0.0000    0.0000 O   0  0  0  0  0  0  0  0  0  0  0  0
    0.0000    0.0000    0.0000 C   0  0  0  0  0  0  0  0  0  0  0  0
    0.0000    0.0000    0.0000 C   0  0  0  0  0  0  0  0  0  0  0  0
    0.0000    0.0000    0.0000 C   0  0  0  0  0  0  0  0  0  0  0  0
    0.0000    0.0000    0.0000 C   0  0  0  0  0  0  0  0  0  0  0  0
    0.0000    0.0000    0.0000 C   0  0  0  0  0  0  0  0  0  0  0  0
    0.0000    0.0000    0.0000 N   0  0  0  0  0  0  0  0  0  0  0  0
    0.0000    0.0000    0.0000 C   0  0  0  0  0  0  0  0  0  0  0  0
    0.0000    0.0000    0.0000 C   0  0  0  0  0  0  0  0  0  0  0  0
    0.0000    0.0000    0.0000 N   0  0  0  0  0  0  0  0  0  0  0  0
    0.0000    0.0000    0.0000 C   0  0  0  0  0  0  0  0  0  0  0  0
    0.0000    0.0000    0.0000 O   0  0  0  0  0  0  0  0  0  0  0  0
  1  2  1  0
  2  3  1  0
  3  4  1  0
  4  5  2  0
  5  6  1  0
  6  7  2  0
  7  8  1  0
  7  9  1  0
  9 10  2  0
  2 11  1  0
 11 12  2  0
 11 13  1  0
 13 14  1  0
 14 15  1  0
 15 16  1  0
 16 17  1  0
 17 18  1  0
 18 19  1  0
 19 20  1  0
 20 21  2  0
 20 22  1  0
 22 23  1  0
 23 24  1  0
 24 25  2  0
 24 26  1  0
 26 27  1  0
 27 28  1  0
 28 29  2  0
 29 30  1  0
 30 31  2  0
 31 32  1  0
 31 33  1  0
 33 34  2  0
 26 35  1  0
 35 36  1  0
 36 37  2  0
 36 38  1  0
 38 39  1  0
 39 40  1  0
 40 41  2  0
 41 42  1  0
 42 43  2  0
 43 44  1  0
 44 45  2  0
 38 46  1  0
 46 47  1  0
 47 48  2  0
 10  4  1  0
 47 14  1  0
 34 28  1  0
 45 40  1  0
M  END
>  <pIC50>  (833) 
7.5

>  <ChEMBL_ID>  (833) 
CHEMBL3763985

>  <document_journal>  (833) 
J. Med. Chem.

>  <bao_endpoint>  (833) 
BAO_0000190

>  <potential_duplicate>  (833) 
None

>  <uo_units>  (833) 
UO_0000065

>  <canonical_smiles>  (833) 
N[C@@H](Cc1ccc(O)cc1)C(=O)N[C@@H]2CCCCNC(=O)CNC(=O)[C@H](Cc3ccc(O)cc3)NC(=O)[C@H](Cc4ccncc4)NC2=O

>  <parent_molecule_chembl_id>  (833) 
CHEMBL3763985

>  <assay_type>  (833) 
B

>  <src_id>  (833) 
1

>  <ligand_efficiency>  (833) 
None

>  <standard_flag>  (833) 
True

>  <molecule_chembl_id>  (833) 
CHEMBL3763985

>  <target_organism>  (833) 
Homo sapiens

>  <standard_units>  (833) 
nM

>  <record_id>  (833) 
2757927

>  <document_chembl_id>  (833) 
CHEMBL3763066

>  <bao_format>  (833) 
None

>  <data_validity_description>  (833) 
None

>  <activity_id>  (833) 
16480528

>  <standard_type>  (833) 
IC50

>  <target_chembl_id>  (833) 
CHEMBL233

>  <data_validity_comment>  (833) 
None

>  <published_value>  (833) 
32

>  <document_year>  (833) 
2016

>  <target_pref_name>  (833) 
Mu opioid receptor

>  <assay_chembl_id>  (833) 
CHEMBL3766870

>  <standard_relation>  (833) 
=

>  <assay_description>  (833) 
Agonist activity at human MOR expressed in CHO cells assessed as induction of membrane potential change measured every 3 secs for 30 secs by fluorescent membrane potential assay

>  <published_relation>  (833) 
=

>  <standard_value>  (833) 
32

>  <qudt_units>  (833) 
http://www.openphacts.org/units/Nanomolar

>  <target_tax_id>  (833) 
9606

>  <bao_label>  (833) 
None

>  <published_units>  (833) 
nM

>  <pchembl_value>  (833) 
7.5

>  <published_type>  (833) 
IC50

>  <activity_comment>  (833) 
None

$$$$

     RDKit          

 48 51  0  0  0  0  0  0  0  0999 V2000
    0.0000    0.0000    0.0000 N   0  0  0  0  0  0  0  0  0  0  0  0
    0.0000    0.0000    0.0000 C   0  0  0  0  0  0  0  0  0  0  0  0
    0.0000    0.0000    0.0000 C   0  0  0  0  0  0  0  0  0  0  0  0
    0.0000    0.0000    0.0000 C   0  0  0  0  0  0  0  0  0  0  0  0
    0.0000    0.0000    0.0000 C   0  0  0  0  0  0  0  0  0  0  0  0
    0.0000    0.0000    0.0000 C   0  0  0  0  0  0  0  0  0  0  0  0
    0.0000    0.0000    0.0000 C   0  0  0  0  0  0  0  0  0  0  0  0
    0.0000    0.0000    0.0000 O   0  0  0  0  0  0  0  0  0  0  0  0
    0.0000    0.0000    0.0000 C   0  0  0  0  0  0  0  0  0  0  0  0
    0.0000    0.0000    0.0000 C   0  0  0  0  0  0  0  0  0  0  0  0
    0.0000    0.0000    0.0000 C   0  0  0  0  0  0  0  0  0  0  0  0
    0.0000    0.0000    0.0000 O   0  0  0  0  0  0  0  0  0  0  0  0
    0.0000    0.0000    0.0000 N   0  0  0  0  0  0  0  0  0  0  0  0
    0.0000    0.0000    0.0000 C   0  0  0  0  0  0  0  0  0  0  0  0
    0.0000    0.0000    0.0000 C   0  0  0  0  0  0  0  0  0  0  0  0
    0.0000    0.0000    0.0000 C   0  0  0  0  0  0  0  0  0  0  0  0
    0.0000    0.0000    0.0000 C   0  0  0  0  0  0  0  0  0  0  0  0
    0.0000    0.0000    0.0000 C   0  0  0  0  0  0  0  0  0  0  0  0
    0.0000    0.0000    0.0000 N   0  0  0  0  0  0  0  0  0  0  0  0
    0.0000    0.0000    0.0000 C   0  0  0  0  0  0  0  0  0  0  0  0
    0.0000    0.0000    0.0000 O   0  0  0  0  0  0  0  0  0  0  0  0
    0.0000    0.0000    0.0000 C   0  0  0  0  0  0  0  0  0  0  0  0
    0.0000    0.0000    0.0000 N   0  0  0  0  0  0  0  0  0  0  0  0
    0.0000    0.0000    0.0000 C   0  0  0  0  0  0  0  0  0  0  0  0
    0.0000    0.0000    0.0000 O   0  0  0  0  0  0  0  0  0  0  0  0
    0.0000    0.0000    0.0000 C   0  0  0  0  0  0  0  0  0  0  0  0
    0.0000    0.0000    0.0000 C   0  0  0  0  0  0  0  0  0  0  0  0
    0.0000    0.0000    0.0000 C   0  0  0  0  0  0  0  0  0  0  0  0
    0.0000    0.0000    0.0000 C   0  0  0  0  0  0  0  0  0  0  0  0
    0.0000    0.0000    0.0000 C   0  0  0  0  0  0  0  0  0  0  0  0
    0.0000    0.0000    0.0000 C   0  0  0  0  0  0  0  0  0  0  0  0
    0.0000    0.0000    0.0000 O   0  0  0  0  0  0  0  0  0  0  0  0
    0.0000    0.0000    0.0000 C   0  0  0  0  0  0  0  0  0  0  0  0
    0.0000    0.0000    0.0000 C   0  0  0  0  0  0  0  0  0  0  0  0
    0.0000    0.0000    0.0000 N   0  0  0  0  0  0  0  0  0  0  0  0
    0.0000    0.0000    0.0000 C   0  0  0  0  0  0  0  0  0  0  0  0
    0.0000    0.0000    0.0000 O   0  0  0  0  0  0  0  0  0  0  0  0
    0.0000    0.0000    0.0000 C   0  0  0  0  0  0  0  0  0  0  0  0
    0.0000    0.0000    0.0000 C   0  0  0  0  0  0  0  0  0  0  0  0
    0.0000    0.0000    0.0000 C   0  0  0  0  0  0  0  0  0  0  0  0
    0.0000    0.0000    0.0000 C   0  0  0  0  0  0  0  0  0  0  0  0
    0.0000    0.0000    0.0000 C   0  0  0  0  0  0  0  0  0  0  0  0
    0.0000    0.0000    0.0000 C   0  0  0  0  0  0  0  0  0  0  0  0
    0.0000    0.0000    0.0000 N   0  0  0  0  0  0  0  0  0  0  0  0
    0.0000    0.0000    0.0000 C   0  0  0  0  0  0  0  0  0  0  0  0
    0.0000    0.0000    0.0000 N   0  0  0  0  0  0  0  0  0  0  0  0
    0.0000    0.0000    0.0000 C   0  0  0  0  0  0  0  0  0  0  0  0
    0.0000    0.0000    0.0000 O   0  0  0  0  0  0  0  0  0  0  0  0
  1  2  1  0
  2  3  1  0
  3  4  1  0
  4  5  2  0
  5  6  1  0
  6  7  2  0
  7  8  1  0
  7  9  1  0
  9 10  2  0
  2 11  1  0
 11 12  2  0
 11 13  1  0
 13 14  1  0
 14 15  1  0
 15 16  1  0
 16 17  1  0
 17 18  1  0
 18 19  1  0
 19 20  1  0
 20 21  2  0
 20 22  1  0
 22 23  1  0
 23 24  1  0
 24 25  2  0
 24 26  1  0
 26 27  1  0
 27 28  1  0
 28 29  2  0
 29 30  1  0
 30 31  2  0
 31 32  1  0
 31 33  1  0
 33 34  2  0
 26 35  1  0
 35 36  1  0
 36 37  2  0
 36 38  1  0
 38 39  1  0
 39 40  1  0
 40 41  2  0
 41 42  1  0
 42 43  2  0
 43 44  1  0
 44 45  2  0
 38 46  1  0
 46 47  1  0
 47 48  2  0
 10  4  1  0
 47 14  1  0
 34 28  1  0
 45 40  1  0
M  END
>  <pIC50>  (834) 
7.96

>  <ChEMBL_ID>  (834) 
CHEMBL3763920

>  <document_journal>  (834) 
J. Med. Chem.

>  <bao_endpoint>  (834) 
BAO_0000190

>  <potential_duplicate>  (834) 
None

>  <uo_units>  (834) 
UO_0000065

>  <canonical_smiles>  (834) 
N[C@@H](Cc1ccc(O)cc1)C(=O)N[C@@H]2CCCCNC(=O)CNC(=O)[C@H](Cc3ccc(O)cc3)NC(=O)[C@H](Cc4cccnc4)NC2=O

>  <parent_molecule_chembl_id>  (834) 
CHEMBL3763920

>  <assay_type>  (834) 
B

>  <src_id>  (834) 
1

>  <ligand_efficiency>  (834) 
None

>  <standard_flag>  (834) 
True

>  <molecule_chembl_id>  (834) 
CHEMBL3763920

>  <target_organism>  (834) 
Homo sapiens

>  <standard_units>  (834) 
nM

>  <record_id>  (834) 
2757926

>  <document_chembl_id>  (834) 
CHEMBL3763066

>  <bao_format>  (834) 
None

>  <data_validity_description>  (834) 
None

>  <activity_id>  (834) 
16480529

>  <standard_type>  (834) 
IC50

>  <target_chembl_id>  (834) 
CHEMBL233

>  <data_validity_comment>  (834) 
None

>  <published_value>  (834) 
11.1

>  <document_year>  (834) 
2016

>  <target_pref_name>  (834) 
Mu opioid receptor

>  <assay_chembl_id>  (834) 
CHEMBL3766870

>  <standard_relation>  (834) 
=

>  <assay_description>  (834) 
Agonist activity at human MOR expressed in CHO cells assessed as induction of membrane potential change measured every 3 secs for 30 secs by fluorescent membrane potential assay

>  <published_relation>  (834) 
=

>  <standard_value>  (834) 
11.1

>  <qudt_units>  (834) 
http://www.openphacts.org/units/Nanomolar

>  <target_tax_id>  (834) 
9606

>  <bao_label>  (834) 
None

>  <published_units>  (834) 
nM

>  <pchembl_value>  (834) 
7.96

>  <published_type>  (834) 
IC50

>  <activity_comment>  (834) 
None

$$$$

     RDKit          

 47 51  0  0  0  0  0  0  0  0999 V2000
    0.0000    0.0000    0.0000 N   0  0  0  0  0  0  0  0  0  0  0  0
    0.0000    0.0000    0.0000 C   0  0  0  0  0  0  0  0  0  0  0  0
    0.0000    0.0000    0.0000 C   0  0  0  0  0  0  0  0  0  0  0  0
    0.0000    0.0000    0.0000 C   0  0  0  0  0  0  0  0  0  0  0  0
    0.0000    0.0000    0.0000 C   0  0  0  0  0  0  0  0  0  0  0  0
    0.0000    0.0000    0.0000 C   0  0  0  0  0  0  0  0  0  0  0  0
    0.0000    0.0000    0.0000 C   0  0  0  0  0  0  0  0  0  0  0  0
    0.0000    0.0000    0.0000 O   0  0  0  0  0  0  0  0  0  0  0  0
    0.0000    0.0000    0.0000 C   0  0  0  0  0  0  0  0  0  0  0  0
    0.0000    0.0000    0.0000 C   0  0  0  0  0  0  0  0  0  0  0  0
    0.0000    0.0000    0.0000 C   0  0  0  0  0  0  0  0  0  0  0  0
    0.0000    0.0000    0.0000 O   0  0  0  0  0  0  0  0  0  0  0  0
    0.0000    0.0000    0.0000 C   0  0  0  0  0  0  0  0  0  0  0  0
    0.0000    0.0000    0.0000 C   0  0  0  0  0  0  0  0  0  0  0  0
    0.0000    0.0000    0.0000 C   0  0  0  0  0  0  0  0  0  0  0  0
    0.0000    0.0000    0.0000 C   0  0  0  0  0  0  0  0  0  0  0  0
    0.0000    0.0000    0.0000 C   0  0  0  0  0  0  0  0  0  0  0  0
    0.0000    0.0000    0.0000 N   0  0  0  0  0  0  0  0  0  0  0  0
    0.0000    0.0000    0.0000 C   0  0  0  0  0  0  0  0  0  0  0  0
    0.0000    0.0000    0.0000 O   0  0  0  0  0  0  0  0  0  0  0  0
    0.0000    0.0000    0.0000 C   0  0  0  0  0  0  0  0  0  0  0  0
    0.0000    0.0000    0.0000 N   0  0  0  0  0  0  0  0  0  0  0  0
    0.0000    0.0000    0.0000 C   0  0  0  0  0  0  0  0  0  0  0  0
    0.0000    0.0000    0.0000 O   0  0  0  0  0  0  0  0  0  0  0  0
    0.0000    0.0000    0.0000 C   0  0  0  0  0  0  0  0  0  0  0  0
    0.0000    0.0000    0.0000 C   0  0  0  0  0  0  0  0  0  0  0  0
    0.0000    0.0000    0.0000 C   0  0  0  0  0  0  0  0  0  0  0  0
    0.0000    0.0000    0.0000 C   0  0  0  0  0  0  0  0  0  0  0  0
    0.0000    0.0000    0.0000 C   0  0  0  0  0  0  0  0  0  0  0  0
    0.0000    0.0000    0.0000 C   0  0  0  0  0  0  0  0  0  0  0  0
    0.0000    0.0000    0.0000 O   0  0  0  0  0  0  0  0  0  0  0  0
    0.0000    0.0000    0.0000 C   0  0  0  0  0  0  0  0  0  0  0  0
    0.0000    0.0000    0.0000 C   0  0  0  0  0  0  0  0  0  0  0  0
    0.0000    0.0000    0.0000 N   0  0  0  0  0  0  0  0  0  0  0  0
    0.0000    0.0000    0.0000 C   0  0  0  0  0  0  0  0  0  0  0  0
    0.0000    0.0000    0.0000 C   0  0  0  0  0  0  0  0  0  0  0  0
    0.0000    0.0000    0.0000 C   0  0  0  0  0  0  0  0  0  0  0  0
    0.0000    0.0000    0.0000 C   0  0  0  0  0  0  0  0  0  0  0  0
    0.0000    0.0000    0.0000 O   0  0  0  0  0  0  0  0  0  0  0  0
    0.0000    0.0000    0.0000 C   0  0  0  0  0  0  0  0  0  0  0  0
    0.0000    0.0000    0.0000 C   0  0  0  0  0  0  0  0  0  0  0  0
    0.0000    0.0000    0.0000 C   0  0  0  0  0  0  0  0  0  0  0  0
    0.0000    0.0000    0.0000 C   0  0  0  0  0  0  0  0  0  0  0  0
    0.0000    0.0000    0.0000 C   0  0  0  0  0  0  0  0  0  0  0  0
    0.0000    0.0000    0.0000 C   0  0  0  0  0  0  0  0  0  0  0  0
    0.0000    0.0000    0.0000 O   0  0  0  0  0  0  0  0  0  0  0  0
    0.0000    0.0000    0.0000 N   0  0  0  0  0  0  0  0  0  0  0  0
  1  2  1  0
  2  3  1  0
  3  4  1  0
  4  5  2  0
  5  6  1  0
  6  7  2  0
  7  8  1  0
  7  9  1  0
  9 10  2  0
  2 11  1  0
 11 12  2  0
 11 13  1  0
 13 14  1  0
 14 15  1  0
 15 16  1  0
 16 17  1  0
 17 18  1  0
 18 19  1  0
 19 20  2  0
 19 21  1  0
 21 22  1  0
 22 23  1  0
 23 24  2  0
 23 25  1  0
 25 26  1  0
 26 27  1  0
 27 28  2  0
 28 29  1  0
 29 30  2  0
 30 31  1  0
 30 32  1  0
 32 33  2  0
 25 34  1  0
 34 35  1  0
 35 36  1  0
 36 37  2  0
 37 38  1  0
 38 39  1  0
 38 40  2  0
 40 41  1  0
 41 42  2  0
 42 43  1  0
 43 44  1  0
 44 45  1  0
 45 46  2  0
 45 47  1  0
 10  4  1  0
 47 13  1  0
 33 27  1  0
 44 34  1  0
 42 36  1  0
M  END
>  <pIC50>  (835) 
5.9

>  <ChEMBL_ID>  (835) 
CHEMBL3763452

>  <document_journal>  (835) 
J. Med. Chem.

>  <bao_endpoint>  (835) 
BAO_0000190

>  <potential_duplicate>  (835) 
None

>  <uo_units>  (835) 
UO_0000065

>  <canonical_smiles>  (835) 
N[C@@H](Cc1ccc(O)cc1)C(=O)[C@H]2CCCCNC(=O)CNC(=O)[C@H](Cc3ccc(O)cc3)N4Cc5cc(O)ccc5C[C@H]4C(=O)N2

>  <parent_molecule_chembl_id>  (835) 
CHEMBL3763452

>  <assay_type>  (835) 
B

>  <src_id>  (835) 
1

>  <ligand_efficiency>  (835) 
None

>  <standard_flag>  (835) 
True

>  <molecule_chembl_id>  (835) 
CHEMBL3763452

>  <target_organism>  (835) 
Homo sapiens

>  <standard_units>  (835) 
nM

>  <record_id>  (835) 
2757925

>  <document_chembl_id>  (835) 
CHEMBL3763066

>  <bao_format>  (835) 
None

>  <data_validity_description>  (835) 
None

>  <activity_id>  (835) 
16480530

>  <standard_type>  (835) 
IC50

>  <target_chembl_id>  (835) 
CHEMBL233

>  <data_validity_comment>  (835) 
None

>  <published_value>  (835) 
1250

>  <document_year>  (835) 
2016

>  <target_pref_name>  (835) 
Mu opioid receptor

>  <assay_chembl_id>  (835) 
CHEMBL3766870

>  <standard_relation>  (835) 
=

>  <assay_description>  (835) 
Agonist activity at human MOR expressed in CHO cells assessed as induction of membrane potential change measured every 3 secs for 30 secs by fluorescent membrane potential assay

>  <published_relation>  (835) 
=

>  <standard_value>  (835) 
1250

>  <qudt_units>  (835) 
http://www.openphacts.org/units/Nanomolar

>  <target_tax_id>  (835) 
9606

>  <bao_label>  (835) 
None

>  <published_units>  (835) 
nM

>  <pchembl_value>  (835) 
5.9

>  <published_type>  (835) 
IC50

>  <activity_comment>  (835) 
None

$$$$

     RDKit          

 46 50  0  0  0  0  0  0  0  0999 V2000
    0.0000    0.0000    0.0000 N   0  0  0  0  0  0  0  0  0  0  0  0
    0.0000    0.0000    0.0000 C   0  0  0  0  0  0  0  0  0  0  0  0
    0.0000    0.0000    0.0000 C   0  0  0  0  0  0  0  0  0  0  0  0
    0.0000    0.0000    0.0000 C   0  0  0  0  0  0  0  0  0  0  0  0
    0.0000    0.0000    0.0000 C   0  0  0  0  0  0  0  0  0  0  0  0
    0.0000    0.0000    0.0000 C   0  0  0  0  0  0  0  0  0  0  0  0
    0.0000    0.0000    0.0000 C   0  0  0  0  0  0  0  0  0  0  0  0
    0.0000    0.0000    0.0000 O   0  0  0  0  0  0  0  0  0  0  0  0
    0.0000    0.0000    0.0000 C   0  0  0  0  0  0  0  0  0  0  0  0
    0.0000    0.0000    0.0000 C   0  0  0  0  0  0  0  0  0  0  0  0
    0.0000    0.0000    0.0000 C   0  0  0  0  0  0  0  0  0  0  0  0
    0.0000    0.0000    0.0000 O   0  0  0  0  0  0  0  0  0  0  0  0
    0.0000    0.0000    0.0000 C   0  0  0  0  0  0  0  0  0  0  0  0
    0.0000    0.0000    0.0000 C   0  0  0  0  0  0  0  0  0  0  0  0
    0.0000    0.0000    0.0000 C   0  0  0  0  0  0  0  0  0  0  0  0
    0.0000    0.0000    0.0000 C   0  0  0  0  0  0  0  0  0  0  0  0
    0.0000    0.0000    0.0000 C   0  0  0  0  0  0  0  0  0  0  0  0
    0.0000    0.0000    0.0000 N   0  0  0  0  0  0  0  0  0  0  0  0
    0.0000    0.0000    0.0000 C   0  0  0  0  0  0  0  0  0  0  0  0
    0.0000    0.0000    0.0000 O   0  0  0  0  0  0  0  0  0  0  0  0
    0.0000    0.0000    0.0000 C   0  0  0  0  0  0  0  0  0  0  0  0
    0.0000    0.0000    0.0000 N   0  0  0  0  0  0  0  0  0  0  0  0
    0.0000    0.0000    0.0000 C   0  0  0  0  0  0  0  0  0  0  0  0
    0.0000    0.0000    0.0000 O   0  0  0  0  0  0  0  0  0  0  0  0
    0.0000    0.0000    0.0000 C   0  0  0  0  0  0  0  0  0  0  0  0
    0.0000    0.0000    0.0000 C   0  0  0  0  0  0  0  0  0  0  0  0
    0.0000    0.0000    0.0000 C   0  0  0  0  0  0  0  0  0  0  0  0
    0.0000    0.0000    0.0000 C   0  0  0  0  0  0  0  0  0  0  0  0
    0.0000    0.0000    0.0000 C   0  0  0  0  0  0  0  0  0  0  0  0
    0.0000    0.0000    0.0000 C   0  0  0  0  0  0  0  0  0  0  0  0
    0.0000    0.0000    0.0000 O   0  0  0  0  0  0  0  0  0  0  0  0
    0.0000    0.0000    0.0000 C   0  0  0  0  0  0  0  0  0  0  0  0
    0.0000    0.0000    0.0000 C   0  0  0  0  0  0  0  0  0  0  0  0
    0.0000    0.0000    0.0000 N   0  0  0  0  0  0  0  0  0  0  0  0
    0.0000    0.0000    0.0000 C   0  0  0  0  0  0  0  0  0  0  0  0
    0.0000    0.0000    0.0000 C   0  0  0  0  0  0  0  0  0  0  0  0
    0.0000    0.0000    0.0000 C   0  0  0  0  0  0  0  0  0  0  0  0
    0.0000    0.0000    0.0000 C   0  0  0  0  0  0  0  0  0  0  0  0
    0.0000    0.0000    0.0000 C   0  0  0  0  0  0  0  0  0  0  0  0
    0.0000    0.0000    0.0000 C   0  0  0  0  0  0  0  0  0  0  0  0
    0.0000    0.0000    0.0000 C   0  0  0  0  0  0  0  0  0  0  0  0
    0.0000    0.0000    0.0000 C   0  0  0  0  0  0  0  0  0  0  0  0
    0.0000    0.0000    0.0000 C   0  0  0  0  0  0  0  0  0  0  0  0
    0.0000    0.0000    0.0000 C   0  0  0  0  0  0  0  0  0  0  0  0
    0.0000    0.0000    0.0000 O   0  0  0  0  0  0  0  0  0  0  0  0
    0.0000    0.0000    0.0000 N   0  0  0  0  0  0  0  0  0  0  0  0
  1  2  1  0
  2  3  1  0
  3  4  1  0
  4  5  2  0
  5  6  1  0
  6  7  2  0
  7  8  1  0
  7  9  1  0
  9 10  2  0
  2 11  1  0
 11 12  2  0
 11 13  1  0
 13 14  1  0
 14 15  1  0
 15 16  1  0
 16 17  1  0
 17 18  1  0
 18 19  1  0
 19 20  2  0
 19 21  1  0
 21 22  1  0
 22 23  1  0
 23 24  2  0
 23 25  1  0
 25 26  1  0
 26 27  1  0
 27 28  2  0
 28 29  1  0
 29 30  2  0
 30 31  1  0
 30 32  1  0
 32 33  2  0
 25 34  1  0
 34 35  1  0
 35 36  1  0
 36 37  2  0
 37 38  1  0
 38 39  2  0
 39 40  1  0
 40 41  2  0
 41 42  1  0
 42 43  1  0
 43 44  1  0
 44 45  2  0
 44 46  1  0
 10  4  1  0
 46 13  1  0
 33 27  1  0
 43 34  1  0
 41 36  1  0
M  END
>  <pIC50>  (836) 
6.17

>  <ChEMBL_ID>  (836) 
CHEMBL3764234

>  <document_journal>  (836) 
J. Med. Chem.

>  <bao_endpoint>  (836) 
BAO_0000190

>  <potential_duplicate>  (836) 
None

>  <uo_units>  (836) 
UO_0000065

>  <canonical_smiles>  (836) 
N[C@@H](Cc1ccc(O)cc1)C(=O)[C@H]2CCCCNC(=O)CNC(=O)[C@H](Cc3ccc(O)cc3)N4Cc5ccccc5C[C@H]4C(=O)N2

>  <parent_molecule_chembl_id>  (836) 
CHEMBL3764234

>  <assay_type>  (836) 
B

>  <src_id>  (836) 
1

>  <ligand_efficiency>  (836) 
None

>  <standard_flag>  (836) 
True

>  <molecule_chembl_id>  (836) 
CHEMBL3764234

>  <target_organism>  (836) 
Homo sapiens

>  <standard_units>  (836) 
nM

>  <record_id>  (836) 
2757924

>  <document_chembl_id>  (836) 
CHEMBL3763066

>  <bao_format>  (836) 
None

>  <data_validity_description>  (836) 
None

>  <activity_id>  (836) 
16480531

>  <standard_type>  (836) 
IC50

>  <target_chembl_id>  (836) 
CHEMBL233

>  <data_validity_comment>  (836) 
None

>  <published_value>  (836) 
677.8

>  <document_year>  (836) 
2016

>  <target_pref_name>  (836) 
Mu opioid receptor

>  <assay_chembl_id>  (836) 
CHEMBL3766870

>  <standard_relation>  (836) 
=

>  <assay_description>  (836) 
Agonist activity at human MOR expressed in CHO cells assessed as induction of membrane potential change measured every 3 secs for 30 secs by fluorescent membrane potential assay

>  <published_relation>  (836) 
=

>  <standard_value>  (836) 
677.8

>  <qudt_units>  (836) 
http://www.openphacts.org/units/Nanomolar

>  <target_tax_id>  (836) 
9606

>  <bao_label>  (836) 
None

>  <published_units>  (836) 
nM

>  <pchembl_value>  (836) 
6.17

>  <published_type>  (836) 
IC50

>  <activity_comment>  (836) 
None

$$$$

     RDKit          

 51 55  0  0  0  0  0  0  0  0999 V2000
    0.0000    0.0000    0.0000 N   0  0  0  0  0  0  0  0  0  0  0  0
    0.0000    0.0000    0.0000 C   0  0  0  0  0  0  0  0  0  0  0  0
    0.0000    0.0000    0.0000 C   0  0  0  0  0  0  0  0  0  0  0  0
    0.0000    0.0000    0.0000 C   0  0  0  0  0  0  0  0  0  0  0  0
    0.0000    0.0000    0.0000 C   0  0  0  0  0  0  0  0  0  0  0  0
    0.0000    0.0000    0.0000 C   0  0  0  0  0  0  0  0  0  0  0  0
    0.0000    0.0000    0.0000 C   0  0  0  0  0  0  0  0  0  0  0  0
    0.0000    0.0000    0.0000 O   0  0  0  0  0  0  0  0  0  0  0  0
    0.0000    0.0000    0.0000 C   0  0  0  0  0  0  0  0  0  0  0  0
    0.0000    0.0000    0.0000 C   0  0  0  0  0  0  0  0  0  0  0  0
    0.0000    0.0000    0.0000 C   0  0  0  0  0  0  0  0  0  0  0  0
    0.0000    0.0000    0.0000 O   0  0  0  0  0  0  0  0  0  0  0  0
    0.0000    0.0000    0.0000 N   0  0  0  0  0  0  0  0  0  0  0  0
    0.0000    0.0000    0.0000 C   0  0  0  0  0  0  0  0  0  0  0  0
    0.0000    0.0000    0.0000 C   0  0  0  0  0  0  0  0  0  0  0  0
    0.0000    0.0000    0.0000 C   0  0  0  0  0  0  0  0  0  0  0  0
    0.0000    0.0000    0.0000 C   0  0  0  0  0  0  0  0  0  0  0  0
    0.0000    0.0000    0.0000 C   0  0  0  0  0  0  0  0  0  0  0  0
    0.0000    0.0000    0.0000 N   0  0  0  0  0  0  0  0  0  0  0  0
    0.0000    0.0000    0.0000 C   0  0  0  0  0  0  0  0  0  0  0  0
    0.0000    0.0000    0.0000 O   0  0  0  0  0  0  0  0  0  0  0  0
    0.0000    0.0000    0.0000 C   0  0  0  0  0  0  0  0  0  0  0  0
    0.0000    0.0000    0.0000 N   0  0  0  0  0  0  0  0  0  0  0  0
    0.0000    0.0000    0.0000 C   0  0  0  0  0  0  0  0  0  0  0  0
    0.0000    0.0000    0.0000 O   0  0  0  0  0  0  0  0  0  0  0  0
    0.0000    0.0000    0.0000 C   0  0  0  0  0  0  0  0  0  0  0  0
    0.0000    0.0000    0.0000 C   0  0  0  0  0  0  0  0  0  0  0  0
    0.0000    0.0000    0.0000 C   0  0  0  0  0  0  0  0  0  0  0  0
    0.0000    0.0000    0.0000 C   0  0  0  0  0  0  0  0  0  0  0  0
    0.0000    0.0000    0.0000 C   0  0  0  0  0  0  0  0  0  0  0  0
    0.0000    0.0000    0.0000 C   0  0  0  0  0  0  0  0  0  0  0  0
    0.0000    0.0000    0.0000 O   0  0  0  0  0  0  0  0  0  0  0  0
    0.0000    0.0000    0.0000 C   0  0  0  0  0  0  0  0  0  0  0  0
    0.0000    0.0000    0.0000 C   0  0  0  0  0  0  0  0  0  0  0  0
    0.0000    0.0000    0.0000 N   0  0  0  0  0  0  0  0  0  0  0  0
    0.0000    0.0000    0.0000 C   0  0  0  0  0  0  0  0  0  0  0  0
    0.0000    0.0000    0.0000 O   0  0  0  0  0  0  0  0  0  0  0  0
    0.0000    0.0000    0.0000 C   0  0  0  0  0  0  0  0  0  0  0  0
    0.0000    0.0000    0.0000 C   0  0  0  0  0  0  0  0  0  0  0  0
    0.0000    0.0000    0.0000 C   0  0  0  0  0  0  0  0  0  0  0  0
    0.0000    0.0000    0.0000 C   0  0  0  0  0  0  0  0  0  0  0  0
    0.0000    0.0000    0.0000 N   0  0  0  0  0  0  0  0  0  0  0  0
    0.0000    0.0000    0.0000 C   0  0  0  0  0  0  0  0  0  0  0  0
    0.0000    0.0000    0.0000 C   0  0  0  0  0  0  0  0  0  0  0  0
    0.0000    0.0000    0.0000 C   0  0  0  0  0  0  0  0  0  0  0  0
    0.0000    0.0000    0.0000 C   0  0  0  0  0  0  0  0  0  0  0  0
    0.0000    0.0000    0.0000 C   0  0  0  0  0  0  0  0  0  0  0  0
    0.0000    0.0000    0.0000 C   0  0  0  0  0  0  0  0  0  0  0  0
    0.0000    0.0000    0.0000 N   0  0  0  0  0  0  0  0  0  0  0  0
    0.0000    0.0000    0.0000 C   0  0  0  0  0  0  0  0  0  0  0  0
    0.0000    0.0000    0.0000 O   0  0  0  0  0  0  0  0  0  0  0  0
  1  2  1  0
  2  3  1  0
  3  4  1  0
  4  5  2  0
  5  6  1  0
  6  7  2  0
  7  8  1  0
  7  9  1  0
  9 10  2  0
  2 11  1  0
 11 12  2  0
 11 13  1  0
 13 14  1  0
 14 15  1  0
 15 16  1  0
 16 17  1  0
 17 18  1  0
 18 19  1  0
 19 20  1  0
 20 21  2  0
 20 22  1  0
 22 23  1  0
 23 24  1  0
 24 25  2  0
 24 26  1  0
 26 27  1  0
 27 28  1  0
 28 29  2  0
 29 30  1  0
 30 31  2  0
 31 32  1  0
 31 33  1  0
 33 34  2  0
 26 35  1  0
 35 36  1  0
 36 37  2  0
 36 38  1  0
 38 39  1  0
 39 40  1  0
 40 41  2  0
 41 42  1  0
 42 43  1  0
 43 44  2  0
 44 45  1  0
 45 46  2  0
 46 47  1  0
 47 48  2  0
 38 49  1  0
 49 50  1  0
 50 51  2  0
 10  4  1  0
 50 14  1  0
 34 28  1  0
 48 40  1  0
 48 43  1  0
M  END
>  <pIC50>  (837) 
7.62

>  <ChEMBL_ID>  (837) 
CHEMBL3764556

>  <document_journal>  (837) 
J. Med. Chem.

>  <bao_endpoint>  (837) 
BAO_0000190

>  <potential_duplicate>  (837) 
None

>  <uo_units>  (837) 
UO_0000065

>  <canonical_smiles>  (837) 
N[C@@H](Cc1ccc(O)cc1)C(=O)N[C@@H]2CCCCNC(=O)CNC(=O)[C@H](Cc3ccc(O)cc3)NC(=O)[C@H](Cc4c[nH]c5ccccc45)NC2=O

>  <parent_molecule_chembl_id>  (837) 
CHEMBL3764556

>  <assay_type>  (837) 
B

>  <src_id>  (837) 
1

>  <ligand_efficiency>  (837) 
None

>  <standard_flag>  (837) 
True

>  <molecule_chembl_id>  (837) 
CHEMBL3764556

>  <target_organism>  (837) 
Homo sapiens

>  <standard_units>  (837) 
nM

>  <record_id>  (837) 
2757923

>  <document_chembl_id>  (837) 
CHEMBL3763066

>  <bao_format>  (837) 
None

>  <data_validity_description>  (837) 
None

>  <activity_id>  (837) 
16480532

>  <standard_type>  (837) 
IC50

>  <target_chembl_id>  (837) 
CHEMBL233

>  <data_validity_comment>  (837) 
None

>  <published_value>  (837) 
24

>  <document_year>  (837) 
2016

>  <target_pref_name>  (837) 
Mu opioid receptor

>  <assay_chembl_id>  (837) 
CHEMBL3766870

>  <standard_relation>  (837) 
=

>  <assay_description>  (837) 
Agonist activity at human MOR expressed in CHO cells assessed as induction of membrane potential change measured every 3 secs for 30 secs by fluorescent membrane potential assay

>  <published_relation>  (837) 
=

>  <standard_value>  (837) 
24

>  <qudt_units>  (837) 
http://www.openphacts.org/units/Nanomolar

>  <target_tax_id>  (837) 
9606

>  <bao_label>  (837) 
None

>  <published_units>  (837) 
nM

>  <pchembl_value>  (837) 
7.62

>  <published_type>  (837) 
IC50

>  <activity_comment>  (837) 
None

$$$$

     RDKit          

 49 52  0  0  0  0  0  0  0  0999 V2000
    0.0000    0.0000    0.0000 N   0  0  0  0  0  0  0  0  0  0  0  0
    0.0000    0.0000    0.0000 C   0  0  0  0  0  0  0  0  0  0  0  0
    0.0000    0.0000    0.0000 C   0  0  0  0  0  0  0  0  0  0  0  0
    0.0000    0.0000    0.0000 C   0  0  0  0  0  0  0  0  0  0  0  0
    0.0000    0.0000    0.0000 C   0  0  0  0  0  0  0  0  0  0  0  0
    0.0000    0.0000    0.0000 C   0  0  0  0  0  0  0  0  0  0  0  0
    0.0000    0.0000    0.0000 C   0  0  0  0  0  0  0  0  0  0  0  0
    0.0000    0.0000    0.0000 O   0  0  0  0  0  0  0  0  0  0  0  0
    0.0000    0.0000    0.0000 C   0  0  0  0  0  0  0  0  0  0  0  0
    0.0000    0.0000    0.0000 C   0  0  0  0  0  0  0  0  0  0  0  0
    0.0000    0.0000    0.0000 C   0  0  0  0  0  0  0  0  0  0  0  0
    0.0000    0.0000    0.0000 O   0  0  0  0  0  0  0  0  0  0  0  0
    0.0000    0.0000    0.0000 N   0  0  0  0  0  0  0  0  0  0  0  0
    0.0000    0.0000    0.0000 C   0  0  0  0  0  0  0  0  0  0  0  0
    0.0000    0.0000    0.0000 C   0  0  0  0  0  0  0  0  0  0  0  0
    0.0000    0.0000    0.0000 C   0  0  0  0  0  0  0  0  0  0  0  0
    0.0000    0.0000    0.0000 C   0  0  0  0  0  0  0  0  0  0  0  0
    0.0000    0.0000    0.0000 C   0  0  0  0  0  0  0  0  0  0  0  0
    0.0000    0.0000    0.0000 N   0  0  0  0  0  0  0  0  0  0  0  0
    0.0000    0.0000    0.0000 C   0  0  0  0  0  0  0  0  0  0  0  0
    0.0000    0.0000    0.0000 O   0  0  0  0  0  0  0  0  0  0  0  0
    0.0000    0.0000    0.0000 C   0  0  0  0  0  0  0  0  0  0  0  0
    0.0000    0.0000    0.0000 N   0  0  0  0  0  0  0  0  0  0  0  0
    0.0000    0.0000    0.0000 C   0  0  0  0  0  0  0  0  0  0  0  0
    0.0000    0.0000    0.0000 O   0  0  0  0  0  0  0  0  0  0  0  0
    0.0000    0.0000    0.0000 C   0  0  0  0  0  0  0  0  0  0  0  0
    0.0000    0.0000    0.0000 C   0  0  0  0  0  0  0  0  0  0  0  0
    0.0000    0.0000    0.0000 C   0  0  0  0  0  0  0  0  0  0  0  0
    0.0000    0.0000    0.0000 C   0  0  0  0  0  0  0  0  0  0  0  0
    0.0000    0.0000    0.0000 C   0  0  0  0  0  0  0  0  0  0  0  0
    0.0000    0.0000    0.0000 C   0  0  0  0  0  0  0  0  0  0  0  0
    0.0000    0.0000    0.0000 O   0  0  0  0  0  0  0  0  0  0  0  0
    0.0000    0.0000    0.0000 C   0  0  0  0  0  0  0  0  0  0  0  0
    0.0000    0.0000    0.0000 C   0  0  0  0  0  0  0  0  0  0  0  0
    0.0000    0.0000    0.0000 N   0  0  0  0  0  0  0  0  0  0  0  0
    0.0000    0.0000    0.0000 C   0  0  0  0  0  0  0  0  0  0  0  0
    0.0000    0.0000    0.0000 O   0  0  0  0  0  0  0  0  0  0  0  0
    0.0000    0.0000    0.0000 C   0  0  0  0  0  0  0  0  0  0  0  0
    0.0000    0.0000    0.0000 C   0  0  0  0  0  0  0  0  0  0  0  0
    0.0000    0.0000    0.0000 C   0  0  0  0  0  0  0  0  0  0  0  0
    0.0000    0.0000    0.0000 C   0  0  0  0  0  0  0  0  0  0  0  0
    0.0000    0.0000    0.0000 C   0  0  0  0  0  0  0  0  0  0  0  0
    0.0000    0.0000    0.0000 C   0  0  0  0  0  0  0  0  0  0  0  0
    0.0000    0.0000    0.0000 O   0  0  0  0  0  0  0  0  0  0  0  0
    0.0000    0.0000    0.0000 C   0  0  0  0  0  0  0  0  0  0  0  0
    0.0000    0.0000    0.0000 C   0  0  0  0  0  0  0  0  0  0  0  0
    0.0000    0.0000    0.0000 N   0  0  0  0  0  0  0  0  0  0  0  0
    0.0000    0.0000    0.0000 C   0  0  0  0  0  0  0  0  0  0  0  0
    0.0000    0.0000    0.0000 O   0  0  0  0  0  0  0  0  0  0  0  0
  1  2  1  0
  2  3  1  0
  3  4  1  0
  4  5  2  0
  5  6  1  0
  6  7  2  0
  7  8  1  0
  7  9  1  0
  9 10  2  0
  2 11  1  0
 11 12  2  0
 11 13  1  0
 13 14  1  0
 14 15  1  0
 15 16  1  0
 16 17  1  0
 17 18  1  0
 18 19  1  0
 19 20  1  0
 20 21  2  0
 20 22  1  0
 22 23  1  0
 23 24  1  0
 24 25  2  0
 24 26  1  0
 26 27  1  0
 27 28  1  0
 28 29  2  0
 29 30  1  0
 30 31  2  0
 31 32  1  0
 31 33  1  0
 33 34  2  0
 26 35  1  0
 35 36  1  0
 36 37  2  0
 36 38  1  0
 38 39  1  0
 39 40  1  0
 40 41  2  0
 41 42  1  0
 42 43  2  0
 43 44  1  0
 43 45  1  0
 45 46  2  0
 38 47  1  0
 47 48  1  0
 48 49  2  0
 10  4  1  0
 48 14  1  0
 34 28  1  0
 46 40  1  0
M  END
>  <pIC50>  (838) 
7.15

>  <ChEMBL_ID>  (838) 
CHEMBL3763905

>  <document_journal>  (838) 
J. Med. Chem.

>  <bao_endpoint>  (838) 
BAO_0000190

>  <potential_duplicate>  (838) 
None

>  <uo_units>  (838) 
UO_0000065

>  <canonical_smiles>  (838) 
N[C@@H](Cc1ccc(O)cc1)C(=O)N[C@@H]2CCCCNC(=O)CNC(=O)[C@H](Cc3ccc(O)cc3)NC(=O)[C@H](Cc4ccc(O)cc4)NC2=O

>  <parent_molecule_chembl_id>  (838) 
CHEMBL3763905

>  <assay_type>  (838) 
B

>  <src_id>  (838) 
1

>  <ligand_efficiency>  (838) 
None

>  <standard_flag>  (838) 
True

>  <molecule_chembl_id>  (838) 
CHEMBL3763905

>  <target_organism>  (838) 
Homo sapiens

>  <standard_units>  (838) 
nM

>  <record_id>  (838) 
2757922

>  <document_chembl_id>  (838) 
CHEMBL3763066

>  <bao_format>  (838) 
None

>  <data_validity_description>  (838) 
None

>  <activity_id>  (838) 
16480533

>  <standard_type>  (838) 
IC50

>  <target_chembl_id>  (838) 
CHEMBL233

>  <data_validity_comment>  (838) 
None

>  <published_value>  (838) 
70.4

>  <document_year>  (838) 
2016

>  <target_pref_name>  (838) 
Mu opioid receptor

>  <assay_chembl_id>  (838) 
CHEMBL3766870

>  <standard_relation>  (838) 
=

>  <assay_description>  (838) 
Agonist activity at human MOR expressed in CHO cells assessed as induction of membrane potential change measured every 3 secs for 30 secs by fluorescent membrane potential assay

>  <published_relation>  (838) 
=

>  <standard_value>  (838) 
70.4

>  <qudt_units>  (838) 
http://www.openphacts.org/units/Nanomolar

>  <target_tax_id>  (838) 
9606

>  <bao_label>  (838) 
None

>  <published_units>  (838) 
nM

>  <pchembl_value>  (838) 
7.15

>  <published_type>  (838) 
IC50

>  <activity_comment>  (838) 
None

$$$$

     RDKit          

 48 51  0  0  0  0  0  0  0  0999 V2000
    0.0000    0.0000    0.0000 N   0  0  0  0  0  0  0  0  0  0  0  0
    0.0000    0.0000    0.0000 C   0  0  0  0  0  0  0  0  0  0  0  0
    0.0000    0.0000    0.0000 C   0  0  0  0  0  0  0  0  0  0  0  0
    0.0000    0.0000    0.0000 C   0  0  0  0  0  0  0  0  0  0  0  0
    0.0000    0.0000    0.0000 C   0  0  0  0  0  0  0  0  0  0  0  0
    0.0000    0.0000    0.0000 C   0  0  0  0  0  0  0  0  0  0  0  0
    0.0000    0.0000    0.0000 C   0  0  0  0  0  0  0  0  0  0  0  0
    0.0000    0.0000    0.0000 O   0  0  0  0  0  0  0  0  0  0  0  0
    0.0000    0.0000    0.0000 C   0  0  0  0  0  0  0  0  0  0  0  0
    0.0000    0.0000    0.0000 C   0  0  0  0  0  0  0  0  0  0  0  0
    0.0000    0.0000    0.0000 C   0  0  0  0  0  0  0  0  0  0  0  0
    0.0000    0.0000    0.0000 O   0  0  0  0  0  0  0  0  0  0  0  0
    0.0000    0.0000    0.0000 N   0  0  0  0  0  0  0  0  0  0  0  0
    0.0000    0.0000    0.0000 C   0  0  0  0  0  0  0  0  0  0  0  0
    0.0000    0.0000    0.0000 C   0  0  0  0  0  0  0  0  0  0  0  0
    0.0000    0.0000    0.0000 C   0  0  0  0  0  0  0  0  0  0  0  0
    0.0000    0.0000    0.0000 C   0  0  0  0  0  0  0  0  0  0  0  0
    0.0000    0.0000    0.0000 C   0  0  0  0  0  0  0  0  0  0  0  0
    0.0000    0.0000    0.0000 N   0  0  0  0  0  0  0  0  0  0  0  0
    0.0000    0.0000    0.0000 C   0  0  0  0  0  0  0  0  0  0  0  0
    0.0000    0.0000    0.0000 O   0  0  0  0  0  0  0  0  0  0  0  0
    0.0000    0.0000    0.0000 C   0  0  0  0  0  0  0  0  0  0  0  0
    0.0000    0.0000    0.0000 N   0  0  0  0  0  0  0  0  0  0  0  0
    0.0000    0.0000    0.0000 C   0  0  0  0  0  0  0  0  0  0  0  0
    0.0000    0.0000    0.0000 O   0  0  0  0  0  0  0  0  0  0  0  0
    0.0000    0.0000    0.0000 C   0  0  0  0  0  0  0  0  0  0  0  0
    0.0000    0.0000    0.0000 C   0  0  0  0  0  0  0  0  0  0  0  0
    0.0000    0.0000    0.0000 C   0  0  0  0  0  0  0  0  0  0  0  0
    0.0000    0.0000    0.0000 C   0  0  0  0  0  0  0  0  0  0  0  0
    0.0000    0.0000    0.0000 C   0  0  0  0  0  0  0  0  0  0  0  0
    0.0000    0.0000    0.0000 C   0  0  0  0  0  0  0  0  0  0  0  0
    0.0000    0.0000    0.0000 O   0  0  0  0  0  0  0  0  0  0  0  0
    0.0000    0.0000    0.0000 C   0  0  0  0  0  0  0  0  0  0  0  0
    0.0000    0.0000    0.0000 C   0  0  0  0  0  0  0  0  0  0  0  0
    0.0000    0.0000    0.0000 N   0  0  0  0  0  0  0  0  0  0  0  0
    0.0000    0.0000    0.0000 C   0  0  0  0  0  0  0  0  0  0  0  0
    0.0000    0.0000    0.0000 O   0  0  0  0  0  0  0  0  0  0  0  0
    0.0000    0.0000    0.0000 C   0  0  0  0  0  0  0  0  0  0  0  0
    0.0000    0.0000    0.0000 C   0  0  0  0  0  0  0  0  0  0  0  0
    0.0000    0.0000    0.0000 C   0  0  0  0  0  0  0  0  0  0  0  0
    0.0000    0.0000    0.0000 C   0  0  0  0  0  0  0  0  0  0  0  0
    0.0000    0.0000    0.0000 C   0  0  0  0  0  0  0  0  0  0  0  0
    0.0000    0.0000    0.0000 C   0  0  0  0  0  0  0  0  0  0  0  0
    0.0000    0.0000    0.0000 C   0  0  0  0  0  0  0  0  0  0  0  0
    0.0000    0.0000    0.0000 C   0  0  0  0  0  0  0  0  0  0  0  0
    0.0000    0.0000    0.0000 N   0  0  0  0  0  0  0  0  0  0  0  0
    0.0000    0.0000    0.0000 C   0  0  0  0  0  0  0  0  0  0  0  0
    0.0000    0.0000    0.0000 O   0  0  0  0  0  0  0  0  0  0  0  0
  1  2  1  0
  2  3  1  0
  3  4  1  0
  4  5  2  0
  5  6  1  0
  6  7  2  0
  7  8  1  0
  7  9  1  0
  9 10  2  0
  2 11  1  0
 11 12  2  0
 11 13  1  0
 13 14  1  0
 14 15  1  0
 15 16  1  0
 16 17  1  0
 17 18  1  0
 18 19  1  0
 19 20  1  0
 20 21  2  0
 20 22  1  0
 22 23  1  0
 23 24  1  0
 24 25  2  0
 24 26  1  0
 26 27  1  0
 27 28  1  0
 28 29  2  0
 29 30  1  0
 30 31  2  0
 31 32  1  0
 31 33  1  0
 33 34  2  0
 26 35  1  0
 35 36  1  0
 36 37  2  0
 36 38  1  0
 38 39  1  0
 39 40  1  0
 40 41  2  0
 41 42  1  0
 42 43  2  0
 43 44  1  0
 44 45  2  0
 38 46  1  0
 46 47  1  0
 47 48  2  0
 10  4  1  0
 47 14  1  0
 34 28  1  0
 45 40  1  0
M  END
>  <pIC50>  (839) 
8.64

>  <ChEMBL_ID>  (839) 
CHEMBL3765059

>  <document_journal>  (839) 
J. Med. Chem.

>  <bao_endpoint>  (839) 
BAO_0000190

>  <potential_duplicate>  (839) 
None

>  <uo_units>  (839) 
UO_0000065

>  <canonical_smiles>  (839) 
N[C@@H](Cc1ccc(O)cc1)C(=O)N[C@@H]2CCCCNC(=O)CNC(=O)[C@H](Cc3ccc(O)cc3)NC(=O)[C@H](Cc4ccccc4)NC2=O

>  <parent_molecule_chembl_id>  (839) 
CHEMBL3765059

>  <assay_type>  (839) 
B

>  <src_id>  (839) 
1

>  <ligand_efficiency>  (839) 
None

>  <standard_flag>  (839) 
True

>  <molecule_chembl_id>  (839) 
CHEMBL3765059

>  <target_organism>  (839) 
Homo sapiens

>  <standard_units>  (839) 
nM

>  <record_id>  (839) 
2757921

>  <document_chembl_id>  (839) 
CHEMBL3763066

>  <bao_format>  (839) 
None

>  <data_validity_description>  (839) 
None

>  <activity_id>  (839) 
16480534

>  <standard_type>  (839) 
IC50

>  <target_chembl_id>  (839) 
CHEMBL233

>  <data_validity_comment>  (839) 
None

>  <published_value>  (839) 
2.3

>  <document_year>  (839) 
2016

>  <target_pref_name>  (839) 
Mu opioid receptor

>  <assay_chembl_id>  (839) 
CHEMBL3766870

>  <standard_relation>  (839) 
=

>  <assay_description>  (839) 
Agonist activity at human MOR expressed in CHO cells assessed as induction of membrane potential change measured every 3 secs for 30 secs by fluorescent membrane potential assay

>  <published_relation>  (839) 
=

>  <standard_value>  (839) 
2.3

>  <qudt_units>  (839) 
http://www.openphacts.org/units/Nanomolar

>  <target_tax_id>  (839) 
9606

>  <bao_label>  (839) 
None

>  <published_units>  (839) 
nM

>  <pchembl_value>  (839) 
8.64

>  <published_type>  (839) 
IC50

>  <activity_comment>  (839) 
None

$$$$

     RDKit          

 27 29  0  0  0  0  0  0  0  0999 V2000
    0.0000    0.0000    0.0000 C   0  0  0  0  0  0  0  0  0  0  0  0
    0.0000    0.0000    0.0000 C   0  0  0  0  0  0  0  0  0  0  0  0
    0.0000    0.0000    0.0000 C   0  0  0  0  0  0  0  0  0  0  0  0
    0.0000    0.0000    0.0000 C   0  0  0  0  0  0  0  0  0  0  0  0
    0.0000    0.0000    0.0000 N   0  0  0  0  0  0  0  0  0  0  0  0
    0.0000    0.0000    0.0000 C   0  0  0  0  0  0  0  0  0  0  0  0
    0.0000    0.0000    0.0000 C   0  0  0  0  0  0  0  0  0  0  0  0
    0.0000    0.0000    0.0000 C   0  0  0  0  0  0  0  0  0  0  0  0
    0.0000    0.0000    0.0000 C   0  0  0  0  0  0  0  0  0  0  0  0
    0.0000    0.0000    0.0000 C   0  0  0  0  0  0  0  0  0  0  0  0
    0.0000    0.0000    0.0000 C   0  0  0  0  0  0  0  0  0  0  0  0
    0.0000    0.0000    0.0000 O   0  0  0  0  0  0  0  0  0  0  0  0
    0.0000    0.0000    0.0000 C   0  0  0  0  0  0  0  0  0  0  0  0
    0.0000    0.0000    0.0000 C   0  0  0  0  0  0  0  0  0  0  0  0
    0.0000    0.0000    0.0000 C   0  0  0  0  0  0  0  0  0  0  0  0
    0.0000    0.0000    0.0000 C   0  0  0  0  0  0  0  0  0  0  0  0
    0.0000    0.0000    0.0000 C   0  0  0  0  0  0  0  0  0  0  0  0
    0.0000    0.0000    0.0000 C   0  0  0  0  0  0  0  0  0  0  0  0
    0.0000    0.0000    0.0000 C   0  0  0  0  0  0  0  0  0  0  0  0
    0.0000    0.0000    0.0000 C   0  0  0  0  0  0  0  0  0  0  0  0
    0.0000    0.0000    0.0000 C   0  0  0  0  0  0  0  0  0  0  0  0
    0.0000    0.0000    0.0000 C   0  0  0  0  0  0  0  0  0  0  0  0
    0.0000    0.0000    0.0000 C   0  0  0  0  0  0  0  0  0  0  0  0
    0.0000    0.0000    0.0000 O   0  0  0  0  0  0  0  0  0  0  0  0
    0.0000    0.0000    0.0000 O   0  0  0  0  0  0  0  0  0  0  0  0
    0.0000    0.0000    0.0000 C   0  0  0  0  0  0  0  0  0  0  0  0
    0.0000    0.0000    0.0000 C   0  0  0  0  0  0  0  0  0  0  0  0
  1  2  1  0
  2  3  1  0
  2  4  1  0
  4  5  1  0
  5  6  1  0
  6  7  1  0
  6  8  1  0
  8  9  1  0
  9 10  2  0
 10 11  1  0
 11 12  1  0
 11 13  2  0
 13 14  1  0
 14 15  2  0
 15 16  1  0
 16 17  1  0
 17 18  2  0
 18 19  1  0
 19 20  2  0
 20 21  1  0
 21 22  2  0
 22 23  1  0
 23 24  2  0
 23 25  1  0
 20 26  1  0
 26 27  2  0
 16  5  1  0
 15  9  1  0
 27 17  1  0
M  END
>  <pIC50>  (840) 
4.92

>  <ChEMBL_ID>  (840) 
CHEMBL3775378

>  <document_journal>  (840) 
ACS Med. Chem. Lett.

>  <bao_endpoint>  (840) 
BAO_0000190

>  <potential_duplicate>  (840) 
None

>  <uo_units>  (840) 
UO_0000065

>  <canonical_smiles>  (840) 
CC(C)CN1[C@H](C)Cc2cc(O)ccc2[C@H]1c3ccc(\C=C\C(=O)O)cc3

>  <parent_molecule_chembl_id>  (840) 
CHEMBL3775378

>  <assay_type>  (840) 
B

>  <src_id>  (840) 
1

>  <ligand_efficiency>  (840) 
None

>  <standard_flag>  (840) 
True

>  <molecule_chembl_id>  (840) 
CHEMBL3775378

>  <target_organism>  (840) 
Homo sapiens

>  <standard_units>  (840) 
nM

>  <record_id>  (840) 
2763158

>  <document_chembl_id>  (840) 
CHEMBL3774369

>  <bao_format>  (840) 
None

>  <data_validity_description>  (840) 
None

>  <activity_id>  (840) 
16505093

>  <standard_type>  (840) 
IC50

>  <target_chembl_id>  (840) 
CHEMBL233

>  <data_validity_comment>  (840) 
None

>  <published_value>  (840) 
12

>  <document_year>  (840) 
2016

>  <target_pref_name>  (840) 
Mu opioid receptor

>  <assay_chembl_id>  (840) 
CHEMBL3776148

>  <standard_relation>  (840) 
=

>  <assay_description>  (840) 
Inhibition of human recombinant mu1 opioid receptor expressed in HEK293 cells

>  <published_relation>  (840) 
=

>  <standard_value>  (840) 
12000

>  <qudt_units>  (840) 
http://www.openphacts.org/units/Nanomolar

>  <target_tax_id>  (840) 
9606

>  <bao_label>  (840) 
None

>  <published_units>  (840) 
uM

>  <pchembl_value>  (840) 
4.92

>  <published_type>  (840) 
IC50

>  <activity_comment>  (840) 
None

$$$$
