
     RDKit          

 25 26  0  0  0  0  0  0  0  0999 V2000
    0.0000    0.0000    0.0000 C   0  0  0  0  0  0  0  0  0  0  0  0
    0.0000    0.0000    0.0000 C   0  0  0  0  0  0  0  0  0  0  0  0
    0.0000    0.0000    0.0000 C   0  0  0  0  0  0  0  0  0  0  0  0
    0.0000    0.0000    0.0000 C   0  0  0  0  0  0  0  0  0  0  0  0
    0.0000    0.0000    0.0000 N   0  0  0  0  0  0  0  0  0  0  0  0
    0.0000    0.0000    0.0000 C   0  0  0  0  0  0  0  0  0  0  0  0
    0.0000    0.0000    0.0000 C   0  0  0  0  0  0  0  0  0  0  0  0
    0.0000    0.0000    0.0000 C   0  0  0  0  0  0  0  0  0  0  0  0
    0.0000    0.0000    0.0000 C   0  0  0  0  0  0  0  0  0  0  0  0
    0.0000    0.0000    0.0000 C   0  0  0  0  0  0  0  0  0  0  0  0
    0.0000    0.0000    0.0000 C   0  0  0  0  0  0  0  0  0  0  0  0
    0.0000    0.0000    0.0000 C   0  0  0  0  0  0  0  0  0  0  0  0
    0.0000    0.0000    0.0000 C   0  0  0  0  0  0  0  0  0  0  0  0
    0.0000    0.0000    0.0000 O   0  0  0  0  0  0  0  0  0  0  0  0
    0.0000    0.0000    0.0000 C   0  0  0  0  0  0  0  0  0  0  0  0
    0.0000    0.0000    0.0000 O   0  0  0  0  0  0  0  0  0  0  0  0
    0.0000    0.0000    0.0000 C   0  0  0  0  0  0  0  0  0  0  0  0
    0.0000    0.0000    0.0000 C   0  0  0  0  0  0  0  0  0  0  0  0
    0.0000    0.0000    0.0000 S   0  0  0  0  0  0  0  0  0  0  0  0
    0.0000    0.0000    0.0000 C   0  0  0  0  0  0  0  0  0  0  0  0
    0.0000    0.0000    0.0000 C   0  0  0  0  0  0  0  0  0  0  0  0
    0.0000    0.0000    0.0000 S   0  0  0  0  0  0  0  0  0  0  0  0
    0.0000    0.0000    0.0000 O   0  0  0  0  0  0  0  0  0  0  0  0
    0.0000    0.0000    0.0000 O   0  0  0  0  0  0  0  0  0  0  0  0
    0.0000    0.0000    0.0000 N   0  0  0  0  0  0  0  0  0  0  0  0
  1  2  1  0
  2  3  1  0
  2  4  1  0
  4  5  1  0
  5  6  1  0
  5  7  1  0
  7  8  1  0
  8  9  2  0
  9 10  1  0
 10 11  2  0
 11 12  1  0
 12 13  2  0
 13 14  1  0
 10 15  1  0
 15 16  2  0
 15 17  1  0
 17 18  2  0
 18 19  1  0
 19 20  1  0
 20 21  2  0
 20 22  1  0
 22 23  2  0
 22 24  2  0
 22 25  1  0
 13  8  1  0
 21 17  1  0
M  END
>  <pIC50>  (1) 
8.05

>  <ChEMBL_ID>  (1) 
CHEMBL544127

>  <document_journal>  (1) 
J. Med. Chem.

>  <bao_endpoint>  (1) 
BAO_0000190

>  <potential_duplicate>  (1) 
False

>  <uo_units>  (1) 
UO_0000065

>  <canonical_smiles>  (1) 
Cl.CC(C)CN(C)Cc1cc(ccc1O)C(=O)c2csc(c2)S(=O)(=O)N

>  <parent_molecule_chembl_id>  (1) 
CHEMBL1192824

>  <assay_type>  (1) 
B

>  <src_id>  (1) 
1

>  <ligand_efficiency>  (1) 
{u'le': u'0.44', u'bei': u'21.03', u'sei': u'5.86', u'lle': u'5.3'}

>  <standard_flag>  (1) 
True

>  <molecule_chembl_id>  (1) 
CHEMBL544127

>  <target_organism>  (1) 
Homo sapiens

>  <standard_units>  (1) 
nM

>  <record_id>  (1) 
239313

>  <document_chembl_id>  (1) 
CHEMBL1125318

>  <bao_format>  (1) 
BAO_0000357

>  <data_validity_description>  (1) 
None

>  <activity_id>  (1) 
32829

>  <standard_type>  (1) 
IC50

>  <target_chembl_id>  (1) 
CHEMBL205

>  <data_validity_comment>  (1) 
None

>  <published_value>  (1) 
9E-9

>  <document_year>  (1) 
1992

>  <target_pref_name>  (1) 
Carbonic anhydrase II

>  <assay_chembl_id>  (1) 
CHEMBL656569

>  <standard_relation>  (1) 
=

>  <assay_description>  (1) 
Inhibition of human carbonic anhydrase II

>  <published_relation>  (1) 
=

>  <standard_value>  (1) 
9

>  <qudt_units>  (1) 
http://www.openphacts.org/units/Nanomolar

>  <target_tax_id>  (1) 
9606

>  <bao_label>  (1) 
single protein format

>  <published_units>  (1) 
M

>  <pchembl_value>  (1) 
8.05

>  <published_type>  (1) 
I50

>  <activity_comment>  (1) 
None

$$$$

     RDKit          

 19 20  0  0  0  0  0  0  0  0999 V2000
    0.0000    0.0000    0.0000 C   0  0  0  0  0  0  0  0  0  0  0  0
    0.0000    0.0000    0.0000 O   0  0  0  0  0  0  0  0  0  0  0  0
    0.0000    0.0000    0.0000 C   0  0  0  0  0  0  0  0  0  0  0  0
    0.0000    0.0000    0.0000 C   0  0  0  0  0  0  0  0  0  0  0  0
    0.0000    0.0000    0.0000 C   0  0  0  0  0  0  0  0  0  0  0  0
    0.0000    0.0000    0.0000 C   0  0  0  0  0  0  0  0  0  0  0  0
    0.0000    0.0000    0.0000 C   0  0  0  0  0  0  0  0  0  0  0  0
    0.0000    0.0000    0.0000 C   0  0  0  0  0  0  0  0  0  0  0  0
    0.0000    0.0000    0.0000 C   0  0  0  0  0  0  0  0  0  0  0  0
    0.0000    0.0000    0.0000 O   0  0  0  0  0  0  0  0  0  0  0  0
    0.0000    0.0000    0.0000 C   0  0  0  0  0  0  0  0  0  0  0  0
    0.0000    0.0000    0.0000 C   0  0  0  0  0  0  0  0  0  0  0  0
    0.0000    0.0000    0.0000 O   0  0  0  0  0  0  0  0  0  0  0  0
    0.0000    0.0000    0.0000 C   0  0  0  0  0  0  0  0  0  0  0  0
    0.0000    0.0000    0.0000 C   0  0  0  0  0  0  0  0  0  0  0  0
    0.0000    0.0000    0.0000 S   0  0  0  0  0  0  0  0  0  0  0  0
    0.0000    0.0000    0.0000 O   0  0  0  0  0  0  0  0  0  0  0  0
    0.0000    0.0000    0.0000 O   0  0  0  0  0  0  0  0  0  0  0  0
    0.0000    0.0000    0.0000 N   0  0  0  0  0  0  0  0  0  0  0  0
  1  2  1  0
  2  3  1  0
  3  4  2  0
  4  5  1  0
  5  6  2  0
  6  7  1  0
  7  8  2  0
  6  9  1  0
  9 10  2  0
  9 11  1  0
 11 12  2  0
 12 13  1  0
 13 14  1  0
 14 15  2  0
 14 16  1  0
 16 17  2  0
 16 18  2  0
 16 19  1  0
  8  3  1  0
 15 11  1  0
M  END
>  <pIC50>  (2) 
8.7

>  <ChEMBL_ID>  (2) 
CHEMBL340519

>  <document_journal>  (2) 
J. Med. Chem.

>  <bao_endpoint>  (2) 
BAO_0000190

>  <potential_duplicate>  (2) 
False

>  <uo_units>  (2) 
UO_0000065

>  <canonical_smiles>  (2) 
COc1ccc(cc1)C(=O)c2coc(c2)S(=O)(=O)N

>  <parent_molecule_chembl_id>  (2) 
CHEMBL340519

>  <assay_type>  (2) 
B

>  <src_id>  (2) 
1

>  <ligand_efficiency>  (2) 
{u'le': u'0.63', u'bei': u'30.93', u'sei': u'8.06', u'lle': u'7.55'}

>  <standard_flag>  (2) 
True

>  <molecule_chembl_id>  (2) 
CHEMBL340519

>  <target_organism>  (2) 
Homo sapiens

>  <standard_units>  (2) 
nM

>  <record_id>  (2) 
239342

>  <document_chembl_id>  (2) 
CHEMBL1125318

>  <bao_format>  (2) 
BAO_0000357

>  <data_validity_description>  (2) 
None

>  <activity_id>  (2) 
36538

>  <standard_type>  (2) 
IC50

>  <target_chembl_id>  (2) 
CHEMBL205

>  <data_validity_comment>  (2) 
None

>  <published_value>  (2) 
2E-9

>  <document_year>  (2) 
1992

>  <target_pref_name>  (2) 
Carbonic anhydrase II

>  <assay_chembl_id>  (2) 
CHEMBL656569

>  <standard_relation>  (2) 
=

>  <assay_description>  (2) 
Inhibition of human carbonic anhydrase II

>  <published_relation>  (2) 
=

>  <standard_value>  (2) 
2

>  <qudt_units>  (2) 
http://www.openphacts.org/units/Nanomolar

>  <target_tax_id>  (2) 
9606

>  <bao_label>  (2) 
single protein format

>  <published_units>  (2) 
M

>  <pchembl_value>  (2) 
8.7

>  <published_type>  (2) 
I50

>  <activity_comment>  (2) 
None

$$$$

     RDKit          

 22 23  0  0  0  0  0  0  0  0999 V2000
    0.0000    0.0000    0.0000 C   0  0  0  0  0  0  0  0  0  0  0  0
    0.0000    0.0000    0.0000 N   0  0  0  0  0  0  0  0  0  0  0  0
    0.0000    0.0000    0.0000 C   0  0  0  0  0  0  0  0  0  0  0  0
    0.0000    0.0000    0.0000 C   0  0  0  0  0  0  0  0  0  0  0  0
    0.0000    0.0000    0.0000 C   0  0  0  0  0  0  0  0  0  0  0  0
    0.0000    0.0000    0.0000 C   0  0  0  0  0  0  0  0  0  0  0  0
    0.0000    0.0000    0.0000 C   0  0  0  0  0  0  0  0  0  0  0  0
    0.0000    0.0000    0.0000 C   0  0  0  0  0  0  0  0  0  0  0  0
    0.0000    0.0000    0.0000 C   0  0  0  0  0  0  0  0  0  0  0  0
    0.0000    0.0000    0.0000 C   0  0  0  0  0  0  0  0  0  0  0  0
    0.0000    0.0000    0.0000 O   0  0  0  0  0  0  0  0  0  0  0  0
    0.0000    0.0000    0.0000 C   0  0  0  0  0  0  0  0  0  0  0  0
    0.0000    0.0000    0.0000 O   0  0  0  0  0  0  0  0  0  0  0  0
    0.0000    0.0000    0.0000 C   0  0  0  0  0  0  0  0  0  0  0  0
    0.0000    0.0000    0.0000 C   0  0  0  0  0  0  0  0  0  0  0  0
    0.0000    0.0000    0.0000 S   0  0  0  0  0  0  0  0  0  0  0  0
    0.0000    0.0000    0.0000 C   0  0  0  0  0  0  0  0  0  0  0  0
    0.0000    0.0000    0.0000 C   0  0  0  0  0  0  0  0  0  0  0  0
    0.0000    0.0000    0.0000 S   0  0  0  0  0  0  0  0  0  0  0  0
    0.0000    0.0000    0.0000 O   0  0  0  0  0  0  0  0  0  0  0  0
    0.0000    0.0000    0.0000 O   0  0  0  0  0  0  0  0  0  0  0  0
    0.0000    0.0000    0.0000 N   0  0  0  0  0  0  0  0  0  0  0  0
  1  2  1  0
  2  3  1  0
  2  4  1  0
  4  5  1  0
  5  6  2  0
  6  7  1  0
  7  8  2  0
  8  9  1  0
  9 10  2  0
 10 11  1  0
  7 12  1  0
 12 13  2  0
 12 14  1  0
 14 15  2  0
 15 16  1  0
 16 17  1  0
 17 18  2  0
 17 19  1  0
 19 20  2  0
 19 21  2  0
 19 22  1  0
 10  5  1  0
 18 14  1  0
M  END
>  <pIC50>  (3) 
8.19

>  <ChEMBL_ID>  (3) 
CHEMBL541089

>  <document_journal>  (3) 
J. Med. Chem.

>  <bao_endpoint>  (3) 
BAO_0000190

>  <potential_duplicate>  (3) 
False

>  <uo_units>  (3) 
UO_0000065

>  <canonical_smiles>  (3) 
Cl.CN(C)Cc1cc(ccc1O)C(=O)c2csc(c2)S(=O)(=O)N

>  <parent_molecule_chembl_id>  (3) 
CHEMBL1190548

>  <assay_type>  (3) 
B

>  <src_id>  (3) 
1

>  <ligand_efficiency>  (3) 
{u'le': u'0.51', u'bei': u'24.07', u'sei': u'5.97', u'lle': u'6.63'}

>  <standard_flag>  (3) 
True

>  <molecule_chembl_id>  (3) 
CHEMBL541089

>  <target_organism>  (3) 
Homo sapiens

>  <standard_units>  (3) 
nM

>  <record_id>  (3) 
239312

>  <document_chembl_id>  (3) 
CHEMBL1125318

>  <bao_format>  (3) 
BAO_0000357

>  <data_validity_description>  (3) 
None

>  <activity_id>  (3) 
38973

>  <standard_type>  (3) 
IC50

>  <target_chembl_id>  (3) 
CHEMBL205

>  <data_validity_comment>  (3) 
None

>  <published_value>  (3) 
6.4E-9

>  <document_year>  (3) 
1992

>  <target_pref_name>  (3) 
Carbonic anhydrase II

>  <assay_chembl_id>  (3) 
CHEMBL656569

>  <standard_relation>  (3) 
=

>  <assay_description>  (3) 
Inhibition of human carbonic anhydrase II

>  <published_relation>  (3) 
=

>  <standard_value>  (3) 
6.4

>  <qudt_units>  (3) 
http://www.openphacts.org/units/Nanomolar

>  <target_tax_id>  (3) 
9606

>  <bao_label>  (3) 
single protein format

>  <published_units>  (3) 
M

>  <pchembl_value>  (3) 
8.19

>  <published_type>  (3) 
I50

>  <activity_comment>  (3) 
None

$$$$

     RDKit          

 25 27  0  0  0  0  0  0  0  0999 V2000
    0.0000    0.0000    0.0000 N   0  0  0  0  0  0  0  0  0  0  0  0
    0.0000    0.0000    0.0000 S   0  0  0  0  0  0  0  0  0  0  0  0
    0.0000    0.0000    0.0000 O   0  0  0  0  0  0  0  0  0  0  0  0
    0.0000    0.0000    0.0000 O   0  0  0  0  0  0  0  0  0  0  0  0
    0.0000    0.0000    0.0000 C   0  0  0  0  0  0  0  0  0  0  0  0
    0.0000    0.0000    0.0000 C   0  0  0  0  0  0  0  0  0  0  0  0
    0.0000    0.0000    0.0000 C   0  0  0  0  0  0  0  0  0  0  0  0
    0.0000    0.0000    0.0000 C   0  0  0  0  0  0  0  0  0  0  0  0
    0.0000    0.0000    0.0000 S   0  0  0  0  0  0  0  0  0  0  0  0
    0.0000    0.0000    0.0000 S   0  0  0  0  0  0  0  0  0  0  0  0
    0.0000    0.0000    0.0000 O   0  0  0  0  0  0  0  0  0  0  0  0
    0.0000    0.0000    0.0000 O   0  0  0  0  0  0  0  0  0  0  0  0
    0.0000    0.0000    0.0000 C   0  0  0  0  0  0  0  0  0  0  0  0
    0.0000    0.0000    0.0000 C   0  0  0  0  0  0  0  0  0  0  0  0
    0.0000    0.0000    0.0000 C   0  0  0  0  0  0  0  0  0  0  0  0
    0.0000    0.0000    0.0000 C   0  0  0  0  0  0  0  0  0  0  0  0
    0.0000    0.0000    0.0000 C   0  0  0  0  0  0  0  0  0  0  0  0
    0.0000    0.0000    0.0000 N   0  0  0  0  0  0  0  0  0  0  0  0
    0.0000    0.0000    0.0000 C   0  0  0  0  0  0  0  0  0  0  0  0
    0.0000    0.0000    0.0000 C   0  0  0  0  0  0  0  0  0  0  0  0
    0.0000    0.0000    0.0000 O   0  0  0  0  0  0  0  0  0  0  0  0
    0.0000    0.0000    0.0000 C   0  0  0  0  0  0  0  0  0  0  0  0
    0.0000    0.0000    0.0000 C   0  0  0  0  0  0  0  0  0  0  0  0
    0.0000    0.0000    0.0000 C   0  0  0  0  0  0  0  0  0  0  0  0
    0.0000    0.0000    0.0000 C   0  0  0  0  0  0  0  0  0  0  0  0
  1  2  1  0
  2  3  2  0
  2  4  2  0
  2  5  1  0
  5  6  2  0
  6  7  1  0
  7  8  2  0
  8  9  1  0
  7 10  1  0
 10 11  2  0
 10 12  2  0
 10 13  1  0
 13 14  2  0
 14 15  1  0
 15 16  2  0
 16 17  1  0
 17 18  1  0
 18 19  1  0
 19 20  1  0
 20 21  1  0
 21 22  1  0
 22 23  1  0
 16 24  1  0
 24 25  2  0
  9  5  1  0
 25 13  1  0
 23 18  1  0
M  END
>  <pIC50>  (4) 
8.12

>  <ChEMBL_ID>  (4) 
CHEMBL555153

>  <document_journal>  (4) 
J. Med. Chem.

>  <bao_endpoint>  (4) 
BAO_0000190

>  <potential_duplicate>  (4) 
False

>  <uo_units>  (4) 
UO_0000065

>  <canonical_smiles>  (4) 
Cl.NS(=O)(=O)c1cc(cs1)S(=O)(=O)c2ccc(CN3CCOCC3)cc2

>  <parent_molecule_chembl_id>  (4) 
CHEMBL1195683

>  <assay_type>  (4) 
B

>  <src_id>  (4) 
1

>  <ligand_efficiency>  (4) 
{u'le': u'0.44', u'bei': u'20.17', u'sei': u'5.35', u'lle': u'6.93'}

>  <standard_flag>  (4) 
True

>  <molecule_chembl_id>  (4) 
CHEMBL555153

>  <target_organism>  (4) 
Homo sapiens

>  <standard_units>  (4) 
nM

>  <record_id>  (4) 
239338

>  <document_chembl_id>  (4) 
CHEMBL1125318

>  <bao_format>  (4) 
BAO_0000357

>  <data_validity_description>  (4) 
None

>  <activity_id>  (4) 
42481

>  <standard_type>  (4) 
IC50

>  <target_chembl_id>  (4) 
CHEMBL205

>  <data_validity_comment>  (4) 
None

>  <published_value>  (4) 
7.6E-9

>  <document_year>  (4) 
1992

>  <target_pref_name>  (4) 
Carbonic anhydrase II

>  <assay_chembl_id>  (4) 
CHEMBL656569

>  <standard_relation>  (4) 
=

>  <assay_description>  (4) 
Inhibition of human carbonic anhydrase II

>  <published_relation>  (4) 
=

>  <standard_value>  (4) 
7.6

>  <qudt_units>  (4) 
http://www.openphacts.org/units/Nanomolar

>  <target_tax_id>  (4) 
9606

>  <bao_label>  (4) 
single protein format

>  <published_units>  (4) 
M

>  <pchembl_value>  (4) 
8.12

>  <published_type>  (4) 
I50

>  <activity_comment>  (4) 
None

$$$$

     RDKit          

 26 27  0  0  0  0  0  0  0  0999 V2000
    0.0000    0.0000    0.0000 C   0  0  0  0  0  0  0  0  0  0  0  0
    0.0000    0.0000    0.0000 C   0  0  0  0  0  0  0  0  0  0  0  0
    0.0000    0.0000    0.0000 C   0  0  0  0  0  0  0  0  0  0  0  0
    0.0000    0.0000    0.0000 C   0  0  0  0  0  0  0  0  0  0  0  0
    0.0000    0.0000    0.0000 N   0  0  0  0  0  0  0  0  0  0  0  0
    0.0000    0.0000    0.0000 C   0  0  0  0  0  0  0  0  0  0  0  0
    0.0000    0.0000    0.0000 C   0  0  0  0  0  0  0  0  0  0  0  0
    0.0000    0.0000    0.0000 C   0  0  0  0  0  0  0  0  0  0  0  0
    0.0000    0.0000    0.0000 C   0  0  0  0  0  0  0  0  0  0  0  0
    0.0000    0.0000    0.0000 C   0  0  0  0  0  0  0  0  0  0  0  0
    0.0000    0.0000    0.0000 C   0  0  0  0  0  0  0  0  0  0  0  0
    0.0000    0.0000    0.0000 C   0  0  0  0  0  0  0  0  0  0  0  0
    0.0000    0.0000    0.0000 C   0  0  0  0  0  0  0  0  0  0  0  0
    0.0000    0.0000    0.0000 O   0  0  0  0  0  0  0  0  0  0  0  0
    0.0000    0.0000    0.0000 S   0  0  0  0  0  0  0  0  0  0  0  0
    0.0000    0.0000    0.0000 O   0  0  0  0  0  0  0  0  0  0  0  0
    0.0000    0.0000    0.0000 O   0  0  0  0  0  0  0  0  0  0  0  0
    0.0000    0.0000    0.0000 C   0  0  0  0  0  0  0  0  0  0  0  0
    0.0000    0.0000    0.0000 C   0  0  0  0  0  0  0  0  0  0  0  0
    0.0000    0.0000    0.0000 S   0  0  0  0  0  0  0  0  0  0  0  0
    0.0000    0.0000    0.0000 C   0  0  0  0  0  0  0  0  0  0  0  0
    0.0000    0.0000    0.0000 C   0  0  0  0  0  0  0  0  0  0  0  0
    0.0000    0.0000    0.0000 S   0  0  0  0  0  0  0  0  0  0  0  0
    0.0000    0.0000    0.0000 O   0  0  0  0  0  0  0  0  0  0  0  0
    0.0000    0.0000    0.0000 O   0  0  0  0  0  0  0  0  0  0  0  0
    0.0000    0.0000    0.0000 N   0  0  0  0  0  0  0  0  0  0  0  0
  1  2  1  0
  2  3  1  0
  2  4  1  0
  4  5  1  0
  5  6  1  0
  5  7  1  0
  7  8  1  0
  8  9  2  0
  9 10  1  0
 10 11  2  0
 11 12  1  0
 12 13  2  0
 13 14  1  0
 10 15  1  0
 15 16  2  0
 15 17  2  0
 15 18  1  0
 18 19  2  0
 19 20  1  0
 20 21  1  0
 21 22  2  0
 21 23  1  0
 23 24  2  0
 23 25  2  0
 23 26  1  0
 13  8  1  0
 22 18  1  0
M  END
>  <pIC50>  (5) 
8.3

>  <ChEMBL_ID>  (5) 
CHEMBL539817

>  <document_journal>  (5) 
J. Med. Chem.

>  <bao_endpoint>  (5) 
BAO_0000190

>  <potential_duplicate>  (5) 
False

>  <uo_units>  (5) 
UO_0000065

>  <canonical_smiles>  (5) 
Cl.CC(C)CN(C)Cc1cc(ccc1O)S(=O)(=O)c2csc(c2)S(=O)(=O)N

>  <parent_molecule_chembl_id>  (5) 
CHEMBL1189958

>  <assay_type>  (5) 
B

>  <src_id>  (5) 
1

>  <ligand_efficiency>  (5) 
{u'le': u'0.44', u'bei': u'19.83', u'sei': u'5.1', u'lle': u'5.85'}

>  <standard_flag>  (5) 
True

>  <molecule_chembl_id>  (5) 
CHEMBL539817

>  <target_organism>  (5) 
Homo sapiens

>  <standard_units>  (5) 
nM

>  <record_id>  (5) 
239324

>  <document_chembl_id>  (5) 
CHEMBL1125318

>  <bao_format>  (5) 
BAO_0000357

>  <data_validity_description>  (5) 
None

>  <activity_id>  (5) 
42491

>  <standard_type>  (5) 
IC50

>  <target_chembl_id>  (5) 
CHEMBL205

>  <data_validity_comment>  (5) 
None

>  <published_value>  (5) 
5E-9

>  <document_year>  (5) 
1992

>  <target_pref_name>  (5) 
Carbonic anhydrase II

>  <assay_chembl_id>  (5) 
CHEMBL656569

>  <standard_relation>  (5) 
=

>  <assay_description>  (5) 
Inhibition of human carbonic anhydrase II

>  <published_relation>  (5) 
=

>  <standard_value>  (5) 
5

>  <qudt_units>  (5) 
http://www.openphacts.org/units/Nanomolar

>  <target_tax_id>  (5) 
9606

>  <bao_label>  (5) 
single protein format

>  <published_units>  (5) 
M

>  <pchembl_value>  (5) 
8.3

>  <published_type>  (5) 
I50

>  <activity_comment>  (5) 
None

$$$$

     RDKit          

 24 25  0  0  0  0  0  0  0  0999 V2000
    0.0000    0.0000    0.0000 C   0  0  0  0  0  0  0  0  0  0  0  0
    0.0000    0.0000    0.0000 C   0  0  0  0  0  0  0  0  0  0  0  0
    0.0000    0.0000    0.0000 C   0  0  0  0  0  0  0  0  0  0  0  0
    0.0000    0.0000    0.0000 C   0  0  0  0  0  0  0  0  0  0  0  0
    0.0000    0.0000    0.0000 C   0  0  0  0  0  0  0  0  0  0  0  0
    0.0000    0.0000    0.0000 N   0  0  0  0  0  0  0  0  0  0  0  0
    0.0000    0.0000    0.0000 C   0  0  0  0  0  0  0  0  0  0  0  0
    0.0000    0.0000    0.0000 C   0  0  0  0  0  0  0  0  0  0  0  0
    0.0000    0.0000    0.0000 C   0  0  0  0  0  0  0  0  0  0  0  0
    0.0000    0.0000    0.0000 C   0  0  0  0  0  0  0  0  0  0  0  0
    0.0000    0.0000    0.0000 C   0  0  0  0  0  0  0  0  0  0  0  0
    0.0000    0.0000    0.0000 C   0  0  0  0  0  0  0  0  0  0  0  0
    0.0000    0.0000    0.0000 C   0  0  0  0  0  0  0  0  0  0  0  0
    0.0000    0.0000    0.0000 C   0  0  0  0  0  0  0  0  0  0  0  0
    0.0000    0.0000    0.0000 O   0  0  0  0  0  0  0  0  0  0  0  0
    0.0000    0.0000    0.0000 C   0  0  0  0  0  0  0  0  0  0  0  0
    0.0000    0.0000    0.0000 C   0  0  0  0  0  0  0  0  0  0  0  0
    0.0000    0.0000    0.0000 S   0  0  0  0  0  0  0  0  0  0  0  0
    0.0000    0.0000    0.0000 C   0  0  0  0  0  0  0  0  0  0  0  0
    0.0000    0.0000    0.0000 C   0  0  0  0  0  0  0  0  0  0  0  0
    0.0000    0.0000    0.0000 S   0  0  0  0  0  0  0  0  0  0  0  0
    0.0000    0.0000    0.0000 O   0  0  0  0  0  0  0  0  0  0  0  0
    0.0000    0.0000    0.0000 O   0  0  0  0  0  0  0  0  0  0  0  0
    0.0000    0.0000    0.0000 N   0  0  0  0  0  0  0  0  0  0  0  0
  1  2  1  0
  2  3  1  0
  2  4  1  0
  4  5  1  0
  5  6  1  0
  6  7  1  0
  7  8  1  0
  8  9  2  0
  9 10  1  0
 10 11  2  0
 11 12  1  0
 12 13  2  0
 12 14  1  0
 14 15  2  0
 14 16  1  0
 16 17  2  0
 17 18  1  0
 18 19  1  0
 19 20  2  0
 19 21  1  0
 21 22  2  0
 21 23  2  0
 21 24  1  0
 13  8  1  0
 20 16  1  0
M  END
>  <pIC50>  (6) 
8.05

>  <ChEMBL_ID>  (6) 
CHEMBL544355

>  <document_journal>  (6) 
J. Med. Chem.

>  <bao_endpoint>  (6) 
BAO_0000190

>  <potential_duplicate>  (6) 
False

>  <uo_units>  (6) 
UO_0000065

>  <canonical_smiles>  (6) 
Cl.CC(C)CCNCc1cccc(c1)C(=O)c2csc(c2)S(=O)(=O)N

>  <parent_molecule_chembl_id>  (6) 
CHEMBL1193018

>  <assay_type>  (6) 
B

>  <src_id>  (6) 
1

>  <ligand_efficiency>  (6) 
{u'le': u'0.46', u'bei': u'21.95', u'sei': u'6.39', u'lle': u'5.21'}

>  <standard_flag>  (6) 
True

>  <molecule_chembl_id>  (6) 
CHEMBL544355

>  <target_organism>  (6) 
Homo sapiens

>  <standard_units>  (6) 
nM

>  <record_id>  (6) 
239343

>  <document_chembl_id>  (6) 
CHEMBL1125318

>  <bao_format>  (6) 
BAO_0000357

>  <data_validity_description>  (6) 
None

>  <activity_id>  (6) 
44937

>  <standard_type>  (6) 
IC50

>  <target_chembl_id>  (6) 
CHEMBL205

>  <data_validity_comment>  (6) 
None

>  <published_value>  (6) 
9E-9

>  <document_year>  (6) 
1992

>  <target_pref_name>  (6) 
Carbonic anhydrase II

>  <assay_chembl_id>  (6) 
CHEMBL656569

>  <standard_relation>  (6) 
=

>  <assay_description>  (6) 
Inhibition of human carbonic anhydrase II

>  <published_relation>  (6) 
=

>  <standard_value>  (6) 
9

>  <qudt_units>  (6) 
http://www.openphacts.org/units/Nanomolar

>  <target_tax_id>  (6) 
9606

>  <bao_label>  (6) 
single protein format

>  <published_units>  (6) 
M

>  <pchembl_value>  (6) 
8.05

>  <published_type>  (6) 
I50

>  <activity_comment>  (6) 
None

$$$$

     RDKit          

 26 28  0  0  0  0  0  0  0  0999 V2000
    0.0000    0.0000    0.0000 C   0  0  0  0  0  0  0  0  0  0  0  0
    0.0000    0.0000    0.0000 N   0  0  0  0  0  0  0  0  0  0  0  0
    0.0000    0.0000    0.0000 C   0  0  0  0  0  0  0  0  0  0  0  0
    0.0000    0.0000    0.0000 C   0  0  0  0  0  0  0  0  0  0  0  0
    0.0000    0.0000    0.0000 N   0  0  0  0  0  0  0  0  0  0  0  0
    0.0000    0.0000    0.0000 C   0  0  0  0  0  0  0  0  0  0  0  0
    0.0000    0.0000    0.0000 C   0  0  0  0  0  0  0  0  0  0  0  0
    0.0000    0.0000    0.0000 C   0  0  0  0  0  0  0  0  0  0  0  0
    0.0000    0.0000    0.0000 C   0  0  0  0  0  0  0  0  0  0  0  0
    0.0000    0.0000    0.0000 C   0  0  0  0  0  0  0  0  0  0  0  0
    0.0000    0.0000    0.0000 C   0  0  0  0  0  0  0  0  0  0  0  0
    0.0000    0.0000    0.0000 C   0  0  0  0  0  0  0  0  0  0  0  0
    0.0000    0.0000    0.0000 S   0  0  0  0  0  0  0  0  0  0  0  0
    0.0000    0.0000    0.0000 O   0  0  0  0  0  0  0  0  0  0  0  0
    0.0000    0.0000    0.0000 O   0  0  0  0  0  0  0  0  0  0  0  0
    0.0000    0.0000    0.0000 C   0  0  0  0  0  0  0  0  0  0  0  0
    0.0000    0.0000    0.0000 C   0  0  0  0  0  0  0  0  0  0  0  0
    0.0000    0.0000    0.0000 S   0  0  0  0  0  0  0  0  0  0  0  0
    0.0000    0.0000    0.0000 C   0  0  0  0  0  0  0  0  0  0  0  0
    0.0000    0.0000    0.0000 C   0  0  0  0  0  0  0  0  0  0  0  0
    0.0000    0.0000    0.0000 S   0  0  0  0  0  0  0  0  0  0  0  0
    0.0000    0.0000    0.0000 O   0  0  0  0  0  0  0  0  0  0  0  0
    0.0000    0.0000    0.0000 O   0  0  0  0  0  0  0  0  0  0  0  0
    0.0000    0.0000    0.0000 N   0  0  0  0  0  0  0  0  0  0  0  0
    0.0000    0.0000    0.0000 C   0  0  0  0  0  0  0  0  0  0  0  0
    0.0000    0.0000    0.0000 C   0  0  0  0  0  0  0  0  0  0  0  0
  1  2  1  0
  2  3  1  0
  3  4  1  0
  4  5  1  0
  5  6  1  0
  6  7  1  0
  7  8  2  0
  8  9  1  0
  9 10  2  0
 10 11  1  0
 11 12  2  0
 10 13  1  0
 13 14  2  0
 13 15  2  0
 13 16  1  0
 16 17  2  0
 17 18  1  0
 18 19  1  0
 19 20  2  0
 19 21  1  0
 21 22  2  0
 21 23  2  0
 21 24  1  0
  5 25  1  0
 25 26  1  0
 26  2  1  0
 12  7  1  0
 20 16  1  0
M  END
>  <pIC50>  (7) 
7.96

>  <ChEMBL_ID>  (7) 
CHEMBL554875

>  <document_journal>  (7) 
J. Med. Chem.

>  <bao_endpoint>  (7) 
BAO_0000190

>  <potential_duplicate>  (7) 
False

>  <uo_units>  (7) 
UO_0000065

>  <canonical_smiles>  (7) 
Cl.CN1CCN(Cc2ccc(cc2)S(=O)(=O)c3csc(c3)S(=O)(=O)N)CC1

>  <parent_molecule_chembl_id>  (7) 
CHEMBL1195567

>  <assay_type>  (7) 
B

>  <src_id>  (7) 
1

>  <ligand_efficiency>  (7) 
{u'le': u'0.42', u'bei': u'19.15', u'sei': u'5.46', u'lle': u'6.5'}

>  <standard_flag>  (7) 
True

>  <molecule_chembl_id>  (7) 
CHEMBL554875

>  <target_organism>  (7) 
Homo sapiens

>  <standard_units>  (7) 
nM

>  <record_id>  (7) 
239336

>  <document_chembl_id>  (7) 
CHEMBL1125318

>  <bao_format>  (7) 
BAO_0000357

>  <data_validity_description>  (7) 
None

>  <activity_id>  (7) 
44945

>  <standard_type>  (7) 
IC50

>  <target_chembl_id>  (7) 
CHEMBL205

>  <data_validity_comment>  (7) 
None

>  <published_value>  (7) 
1.1E-8

>  <document_year>  (7) 
1992

>  <target_pref_name>  (7) 
Carbonic anhydrase II

>  <assay_chembl_id>  (7) 
CHEMBL656569

>  <standard_relation>  (7) 
=

>  <assay_description>  (7) 
Inhibition of human carbonic anhydrase II

>  <published_relation>  (7) 
=

>  <standard_value>  (7) 
11

>  <qudt_units>  (7) 
http://www.openphacts.org/units/Nanomolar

>  <target_tax_id>  (7) 
9606

>  <bao_label>  (7) 
single protein format

>  <published_units>  (7) 
M

>  <pchembl_value>  (7) 
7.96

>  <published_type>  (7) 
I50

>  <activity_comment>  (7) 
None

$$$$

     RDKit          

 26 28  0  0  0  0  0  0  0  0999 V2000
    0.0000    0.0000    0.0000 C   0  0  0  0  0  0  0  0  0  0  0  0
    0.0000    0.0000    0.0000 N   0  0  0  0  0  0  0  0  0  0  0  0
    0.0000    0.0000    0.0000 C   0  0  0  0  0  0  0  0  0  0  0  0
    0.0000    0.0000    0.0000 C   0  0  0  0  0  0  0  0  0  0  0  0
    0.0000    0.0000    0.0000 N   0  0  0  0  0  0  0  0  0  0  0  0
    0.0000    0.0000    0.0000 C   0  0  0  0  0  0  0  0  0  0  0  0
    0.0000    0.0000    0.0000 C   0  0  0  0  0  0  0  0  0  0  0  0
    0.0000    0.0000    0.0000 C   0  0  0  0  0  0  0  0  0  0  0  0
    0.0000    0.0000    0.0000 C   0  0  0  0  0  0  0  0  0  0  0  0
    0.0000    0.0000    0.0000 C   0  0  0  0  0  0  0  0  0  0  0  0
    0.0000    0.0000    0.0000 C   0  0  0  0  0  0  0  0  0  0  0  0
    0.0000    0.0000    0.0000 C   0  0  0  0  0  0  0  0  0  0  0  0
    0.0000    0.0000    0.0000 S   0  0  0  0  0  0  0  0  0  0  0  0
    0.0000    0.0000    0.0000 O   0  0  0  0  0  0  0  0  0  0  0  0
    0.0000    0.0000    0.0000 O   0  0  0  0  0  0  0  0  0  0  0  0
    0.0000    0.0000    0.0000 C   0  0  0  0  0  0  0  0  0  0  0  0
    0.0000    0.0000    0.0000 C   0  0  0  0  0  0  0  0  0  0  0  0
    0.0000    0.0000    0.0000 S   0  0  0  0  0  0  0  0  0  0  0  0
    0.0000    0.0000    0.0000 C   0  0  0  0  0  0  0  0  0  0  0  0
    0.0000    0.0000    0.0000 C   0  0  0  0  0  0  0  0  0  0  0  0
    0.0000    0.0000    0.0000 S   0  0  0  0  0  0  0  0  0  0  0  0
    0.0000    0.0000    0.0000 O   0  0  0  0  0  0  0  0  0  0  0  0
    0.0000    0.0000    0.0000 O   0  0  0  0  0  0  0  0  0  0  0  0
    0.0000    0.0000    0.0000 N   0  0  0  0  0  0  0  0  0  0  0  0
    0.0000    0.0000    0.0000 C   0  0  0  0  0  0  0  0  0  0  0  0
    0.0000    0.0000    0.0000 C   0  0  0  0  0  0  0  0  0  0  0  0
  1  2  1  0
  2  3  1  0
  3  4  1  0
  4  5  1  0
  5  6  1  0
  6  7  1  0
  7  8  2  0
  8  9  1  0
  9 10  2  0
 10 11  1  0
 11 12  2  0
 12 13  1  0
 13 14  2  0
 13 15  2  0
 13 16  1  0
 16 17  2  0
 17 18  1  0
 18 19  1  0
 19 20  2  0
 19 21  1  0
 21 22  2  0
 21 23  2  0
 21 24  1  0
  5 25  1  0
 25 26  1  0
 26  2  1  0
 12  7  1  0
 20 16  1  0
M  END
>  <pIC50>  (8) 
7.64

>  <ChEMBL_ID>  (8) 
CHEMBL559014

>  <document_journal>  (8) 
J. Med. Chem.

>  <bao_endpoint>  (8) 
BAO_0000190

>  <potential_duplicate>  (8) 
False

>  <uo_units>  (8) 
UO_0000065

>  <canonical_smiles>  (8) 
Cl.CN1CCN(Cc2ccccc2S(=O)(=O)c3csc(c3)S(=O)(=O)N)CC1

>  <parent_molecule_chembl_id>  (8) 
CHEMBL1197022

>  <assay_type>  (8) 
B

>  <src_id>  (8) 
1

>  <ligand_efficiency>  (8) 
{u'le': u'0.4', u'bei': u'18.38', u'sei': u'5.24', u'lle': u'6.18'}

>  <standard_flag>  (8) 
True

>  <molecule_chembl_id>  (8) 
CHEMBL559014

>  <target_organism>  (8) 
Homo sapiens

>  <standard_units>  (8) 
nM

>  <record_id>  (8) 
239327

>  <document_chembl_id>  (8) 
CHEMBL1125318

>  <bao_format>  (8) 
BAO_0000357

>  <data_validity_description>  (8) 
None

>  <activity_id>  (8) 
46040

>  <standard_type>  (8) 
IC50

>  <target_chembl_id>  (8) 
CHEMBL205

>  <data_validity_comment>  (8) 
None

>  <published_value>  (8) 
2.3E-8

>  <document_year>  (8) 
1992

>  <target_pref_name>  (8) 
Carbonic anhydrase II

>  <assay_chembl_id>  (8) 
CHEMBL656569

>  <standard_relation>  (8) 
=

>  <assay_description>  (8) 
Inhibition of human carbonic anhydrase II

>  <published_relation>  (8) 
=

>  <standard_value>  (8) 
23

>  <qudt_units>  (8) 
http://www.openphacts.org/units/Nanomolar

>  <target_tax_id>  (8) 
9606

>  <bao_label>  (8) 
single protein format

>  <published_units>  (8) 
M

>  <pchembl_value>  (8) 
7.64

>  <published_type>  (8) 
I50

>  <activity_comment>  (8) 
None

$$$$

     RDKit          

 23 24  0  0  0  0  0  0  0  0999 V2000
    0.0000    0.0000    0.0000 C   0  0  0  0  0  0  0  0  0  0  0  0
    0.0000    0.0000    0.0000 N   0  0  0  0  0  0  0  0  0  0  0  0
    0.0000    0.0000    0.0000 C   0  0  0  0  0  0  0  0  0  0  0  0
    0.0000    0.0000    0.0000 C   0  0  0  0  0  0  0  0  0  0  0  0
    0.0000    0.0000    0.0000 C   0  0  0  0  0  0  0  0  0  0  0  0
    0.0000    0.0000    0.0000 C   0  0  0  0  0  0  0  0  0  0  0  0
    0.0000    0.0000    0.0000 C   0  0  0  0  0  0  0  0  0  0  0  0
    0.0000    0.0000    0.0000 C   0  0  0  0  0  0  0  0  0  0  0  0
    0.0000    0.0000    0.0000 C   0  0  0  0  0  0  0  0  0  0  0  0
    0.0000    0.0000    0.0000 C   0  0  0  0  0  0  0  0  0  0  0  0
    0.0000    0.0000    0.0000 O   0  0  0  0  0  0  0  0  0  0  0  0
    0.0000    0.0000    0.0000 S   0  0  0  0  0  0  0  0  0  0  0  0
    0.0000    0.0000    0.0000 O   0  0  0  0  0  0  0  0  0  0  0  0
    0.0000    0.0000    0.0000 O   0  0  0  0  0  0  0  0  0  0  0  0
    0.0000    0.0000    0.0000 C   0  0  0  0  0  0  0  0  0  0  0  0
    0.0000    0.0000    0.0000 C   0  0  0  0  0  0  0  0  0  0  0  0
    0.0000    0.0000    0.0000 O   0  0  0  0  0  0  0  0  0  0  0  0
    0.0000    0.0000    0.0000 C   0  0  0  0  0  0  0  0  0  0  0  0
    0.0000    0.0000    0.0000 C   0  0  0  0  0  0  0  0  0  0  0  0
    0.0000    0.0000    0.0000 S   0  0  0  0  0  0  0  0  0  0  0  0
    0.0000    0.0000    0.0000 O   0  0  0  0  0  0  0  0  0  0  0  0
    0.0000    0.0000    0.0000 O   0  0  0  0  0  0  0  0  0  0  0  0
    0.0000    0.0000    0.0000 N   0  0  0  0  0  0  0  0  0  0  0  0
  1  2  1  0
  2  3  1  0
  2  4  1  0
  4  5  1  0
  5  6  2  0
  6  7  1  0
  7  8  2  0
  8  9  1  0
  9 10  2  0
 10 11  1  0
  7 12  1  0
 12 13  2  0
 12 14  2  0
 12 15  1  0
 15 16  2  0
 16 17  1  0
 17 18  1  0
 18 19  2  0
 18 20  1  0
 20 21  2  0
 20 22  2  0
 20 23  1  0
 10  5  1  0
 19 15  1  0
M  END
>  <pIC50>  (9) 
8.16

>  <ChEMBL_ID>  (9) 
CHEMBL553909

>  <document_journal>  (9) 
J. Med. Chem.

>  <bao_endpoint>  (9) 
BAO_0000190

>  <potential_duplicate>  (9) 
False

>  <uo_units>  (9) 
UO_0000065

>  <canonical_smiles>  (9) 
Cl.CN(C)Cc1cc(ccc1O)S(=O)(=O)c2coc(c2)S(=O)(=O)N

>  <parent_molecule_chembl_id>  (9) 
CHEMBL1195127

>  <assay_type>  (9) 
B

>  <src_id>  (9) 
1

>  <ligand_efficiency>  (9) 
{u'le': u'0.48', u'bei': u'22.63', u'sei': u'5.52', u'lle': u'7.45'}

>  <standard_flag>  (9) 
True

>  <molecule_chembl_id>  (9) 
CHEMBL553909

>  <target_organism>  (9) 
Homo sapiens

>  <standard_units>  (9) 
nM

>  <record_id>  (9) 
239347

>  <document_chembl_id>  (9) 
CHEMBL1125318

>  <bao_format>  (9) 
BAO_0000357

>  <data_validity_description>  (9) 
None

>  <activity_id>  (9) 
46046

>  <standard_type>  (9) 
IC50

>  <target_chembl_id>  (9) 
CHEMBL205

>  <data_validity_comment>  (9) 
None

>  <published_value>  (9) 
7E-9

>  <document_year>  (9) 
1992

>  <target_pref_name>  (9) 
Carbonic anhydrase II

>  <assay_chembl_id>  (9) 
CHEMBL656569

>  <standard_relation>  (9) 
=

>  <assay_description>  (9) 
Inhibition of human carbonic anhydrase II

>  <published_relation>  (9) 
=

>  <standard_value>  (9) 
7

>  <qudt_units>  (9) 
http://www.openphacts.org/units/Nanomolar

>  <target_tax_id>  (9) 
9606

>  <bao_label>  (9) 
single protein format

>  <published_units>  (9) 
M

>  <pchembl_value>  (9) 
8.16

>  <published_type>  (9) 
I50

>  <activity_comment>  (9) 
None

$$$$

     RDKit          

 25 26  0  0  0  0  0  0  0  0999 V2000
    0.0000    0.0000    0.0000 C   0  0  0  0  0  0  0  0  0  0  0  0
    0.0000    0.0000    0.0000 C   0  0  0  0  0  0  0  0  0  0  0  0
    0.0000    0.0000    0.0000 N   0  0  0  0  0  0  0  0  0  0  0  0
    0.0000    0.0000    0.0000 C   0  0  0  0  0  0  0  0  0  0  0  0
    0.0000    0.0000    0.0000 C   0  0  0  0  0  0  0  0  0  0  0  0
    0.0000    0.0000    0.0000 C   0  0  0  0  0  0  0  0  0  0  0  0
    0.0000    0.0000    0.0000 C   0  0  0  0  0  0  0  0  0  0  0  0
    0.0000    0.0000    0.0000 C   0  0  0  0  0  0  0  0  0  0  0  0
    0.0000    0.0000    0.0000 C   0  0  0  0  0  0  0  0  0  0  0  0
    0.0000    0.0000    0.0000 C   0  0  0  0  0  0  0  0  0  0  0  0
    0.0000    0.0000    0.0000 C   0  0  0  0  0  0  0  0  0  0  0  0
    0.0000    0.0000    0.0000 C   0  0  0  0  0  0  0  0  0  0  0  0
    0.0000    0.0000    0.0000 O   0  0  0  0  0  0  0  0  0  0  0  0
    0.0000    0.0000    0.0000 S   0  0  0  0  0  0  0  0  0  0  0  0
    0.0000    0.0000    0.0000 O   0  0  0  0  0  0  0  0  0  0  0  0
    0.0000    0.0000    0.0000 O   0  0  0  0  0  0  0  0  0  0  0  0
    0.0000    0.0000    0.0000 C   0  0  0  0  0  0  0  0  0  0  0  0
    0.0000    0.0000    0.0000 C   0  0  0  0  0  0  0  0  0  0  0  0
    0.0000    0.0000    0.0000 S   0  0  0  0  0  0  0  0  0  0  0  0
    0.0000    0.0000    0.0000 C   0  0  0  0  0  0  0  0  0  0  0  0
    0.0000    0.0000    0.0000 C   0  0  0  0  0  0  0  0  0  0  0  0
    0.0000    0.0000    0.0000 S   0  0  0  0  0  0  0  0  0  0  0  0
    0.0000    0.0000    0.0000 O   0  0  0  0  0  0  0  0  0  0  0  0
    0.0000    0.0000    0.0000 O   0  0  0  0  0  0  0  0  0  0  0  0
    0.0000    0.0000    0.0000 N   0  0  0  0  0  0  0  0  0  0  0  0
  1  2  1  0
  2  3  1  0
  3  4  1  0
  4  5  1  0
  3  6  1  0
  6  7  1  0
  7  8  2  0
  8  9  1  0
  9 10  2  0
 10 11  1  0
 11 12  2  0
 12 13  1  0
  9 14  1  0
 14 15  2  0
 14 16  2  0
 14 17  1  0
 17 18  2  0
 18 19  1  0
 19 20  1  0
 20 21  2  0
 20 22  1  0
 22 23  2  0
 22 24  2  0
 22 25  1  0
 12  7  1  0
 21 17  1  0
M  END
>  <pIC50>  (10) 
8.05

>  <ChEMBL_ID>  (10) 
CHEMBL545057

>  <document_journal>  (10) 
J. Med. Chem.

>  <bao_endpoint>  (10) 
BAO_0000190

>  <potential_duplicate>  (10) 
False

>  <uo_units>  (10) 
UO_0000065

>  <canonical_smiles>  (10) 
Cl.CCN(CC)Cc1cc(ccc1O)S(=O)(=O)c2csc(c2)S(=O)(=O)N

>  <parent_molecule_chembl_id>  (10) 
CHEMBL1193618

>  <assay_type>  (10) 
B

>  <src_id>  (10) 
1

>  <ligand_efficiency>  (10) 
{u'le': u'0.44', u'bei': u'19.89', u'sei': u'4.94', u'lle': u'6.1'}

>  <standard_flag>  (10) 
True

>  <molecule_chembl_id>  (10) 
CHEMBL545057

>  <target_organism>  (10) 
Homo sapiens

>  <standard_units>  (10) 
nM

>  <record_id>  (10) 
239325

>  <document_chembl_id>  (10) 
CHEMBL1125318

>  <bao_format>  (10) 
BAO_0000357

>  <data_validity_description>  (10) 
None

>  <activity_id>  (10) 
47359

>  <standard_type>  (10) 
IC50

>  <target_chembl_id>  (10) 
CHEMBL205

>  <data_validity_comment>  (10) 
None

>  <published_value>  (10) 
9E-9

>  <document_year>  (10) 
1992

>  <target_pref_name>  (10) 
Carbonic anhydrase II

>  <assay_chembl_id>  (10) 
CHEMBL656569

>  <standard_relation>  (10) 
=

>  <assay_description>  (10) 
Inhibition of human carbonic anhydrase II

>  <published_relation>  (10) 
=

>  <standard_value>  (10) 
9

>  <qudt_units>  (10) 
http://www.openphacts.org/units/Nanomolar

>  <target_tax_id>  (10) 
9606

>  <bao_label>  (10) 
single protein format

>  <published_units>  (10) 
M

>  <pchembl_value>  (10) 
8.05

>  <published_type>  (10) 
I50

>  <activity_comment>  (10) 
None

$$$$

     RDKit          

 19 20  0  0  0  0  0  0  0  0999 V2000
    0.0000    0.0000    0.0000 C   0  0  0  0  0  0  0  0  0  0  0  0
    0.0000    0.0000    0.0000 C   0  0  0  0  0  0  0  0  0  0  0  0
    0.0000    0.0000    0.0000 C   0  0  0  0  0  0  0  0  0  0  0  0
    0.0000    0.0000    0.0000 C   0  0  0  0  0  0  0  0  0  0  0  0
    0.0000    0.0000    0.0000 C   0  0  0  0  0  0  0  0  0  0  0  0
    0.0000    0.0000    0.0000 C   0  0  0  0  0  0  0  0  0  0  0  0
    0.0000    0.0000    0.0000 C   0  0  0  0  0  0  0  0  0  0  0  0
    0.0000    0.0000    0.0000 S   0  0  0  0  0  0  0  0  0  0  0  0
    0.0000    0.0000    0.0000 O   0  0  0  0  0  0  0  0  0  0  0  0
    0.0000    0.0000    0.0000 O   0  0  0  0  0  0  0  0  0  0  0  0
    0.0000    0.0000    0.0000 C   0  0  0  0  0  0  0  0  0  0  0  0
    0.0000    0.0000    0.0000 C   0  0  0  0  0  0  0  0  0  0  0  0
    0.0000    0.0000    0.0000 O   0  0  0  0  0  0  0  0  0  0  0  0
    0.0000    0.0000    0.0000 C   0  0  0  0  0  0  0  0  0  0  0  0
    0.0000    0.0000    0.0000 C   0  0  0  0  0  0  0  0  0  0  0  0
    0.0000    0.0000    0.0000 S   0  0  0  0  0  0  0  0  0  0  0  0
    0.0000    0.0000    0.0000 O   0  0  0  0  0  0  0  0  0  0  0  0
    0.0000    0.0000    0.0000 O   0  0  0  0  0  0  0  0  0  0  0  0
    0.0000    0.0000    0.0000 N   0  0  0  0  0  0  0  0  0  0  0  0
  1  2  1  0
  2  3  2  0
  3  4  1  0
  4  5  2  0
  5  6  1  0
  6  7  2  0
  5  8  1  0
  8  9  2  0
  8 10  2  0
  8 11  1  0
 11 12  2  0
 12 13  1  0
 13 14  1  0
 14 15  2  0
 14 16  1  0
 16 17  2  0
 16 18  2  0
 16 19  1  0
  7  2  1  0
 15 11  1  0
M  END
>  <pIC50>  (11) 
8.38

>  <ChEMBL_ID>  (11) 
CHEMBL123923

>  <document_journal>  (11) 
J. Med. Chem.

>  <bao_endpoint>  (11) 
BAO_0000190

>  <potential_duplicate>  (11) 
False

>  <uo_units>  (11) 
UO_0000065

>  <canonical_smiles>  (11) 
Cc1ccc(cc1)S(=O)(=O)c2coc(c2)S(=O)(=O)N

>  <parent_molecule_chembl_id>  (11) 
CHEMBL123923

>  <assay_type>  (11) 
B

>  <src_id>  (11) 
1

>  <ligand_efficiency>  (11) 
{u'le': u'0.6', u'bei': u'27.8', u'sei': u'6.75', u'lle': u'7.03'}

>  <standard_flag>  (11) 
True

>  <molecule_chembl_id>  (11) 
CHEMBL123923

>  <target_organism>  (11) 
Homo sapiens

>  <standard_units>  (11) 
nM

>  <record_id>  (11) 
239348

>  <document_chembl_id>  (11) 
CHEMBL1125318

>  <bao_format>  (11) 
BAO_0000357

>  <data_validity_description>  (11) 
None

>  <activity_id>  (11) 
47365

>  <standard_type>  (11) 
IC50

>  <target_chembl_id>  (11) 
CHEMBL205

>  <data_validity_comment>  (11) 
None

>  <published_value>  (11) 
4.2E-9

>  <document_year>  (11) 
1992

>  <target_pref_name>  (11) 
Carbonic anhydrase II

>  <assay_chembl_id>  (11) 
CHEMBL656569

>  <standard_relation>  (11) 
=

>  <assay_description>  (11) 
Inhibition of human carbonic anhydrase II

>  <published_relation>  (11) 
=

>  <standard_value>  (11) 
4.2

>  <qudt_units>  (11) 
http://www.openphacts.org/units/Nanomolar

>  <target_tax_id>  (11) 
9606

>  <bao_label>  (11) 
single protein format

>  <published_units>  (11) 
M

>  <pchembl_value>  (11) 
8.38

>  <published_type>  (11) 
I50

>  <activity_comment>  (11) 
None

$$$$

     RDKit          

 23 24  0  0  0  0  0  0  0  0999 V2000
    0.0000    0.0000    0.0000 C   0  0  0  0  0  0  0  0  0  0  0  0
    0.0000    0.0000    0.0000 C   0  0  0  0  0  0  0  0  0  0  0  0
    0.0000    0.0000    0.0000 C   0  0  0  0  0  0  0  0  0  0  0  0
    0.0000    0.0000    0.0000 C   0  0  0  0  0  0  0  0  0  0  0  0
    0.0000    0.0000    0.0000 N   0  0  0  0  0  0  0  0  0  0  0  0
    0.0000    0.0000    0.0000 C   0  0  0  0  0  0  0  0  0  0  0  0
    0.0000    0.0000    0.0000 C   0  0  0  0  0  0  0  0  0  0  0  0
    0.0000    0.0000    0.0000 C   0  0  0  0  0  0  0  0  0  0  0  0
    0.0000    0.0000    0.0000 C   0  0  0  0  0  0  0  0  0  0  0  0
    0.0000    0.0000    0.0000 C   0  0  0  0  0  0  0  0  0  0  0  0
    0.0000    0.0000    0.0000 C   0  0  0  0  0  0  0  0  0  0  0  0
    0.0000    0.0000    0.0000 C   0  0  0  0  0  0  0  0  0  0  0  0
    0.0000    0.0000    0.0000 C   0  0  0  0  0  0  0  0  0  0  0  0
    0.0000    0.0000    0.0000 O   0  0  0  0  0  0  0  0  0  0  0  0
    0.0000    0.0000    0.0000 C   0  0  0  0  0  0  0  0  0  0  0  0
    0.0000    0.0000    0.0000 C   0  0  0  0  0  0  0  0  0  0  0  0
    0.0000    0.0000    0.0000 S   0  0  0  0  0  0  0  0  0  0  0  0
    0.0000    0.0000    0.0000 C   0  0  0  0  0  0  0  0  0  0  0  0
    0.0000    0.0000    0.0000 C   0  0  0  0  0  0  0  0  0  0  0  0
    0.0000    0.0000    0.0000 S   0  0  0  0  0  0  0  0  0  0  0  0
    0.0000    0.0000    0.0000 O   0  0  0  0  0  0  0  0  0  0  0  0
    0.0000    0.0000    0.0000 O   0  0  0  0  0  0  0  0  0  0  0  0
    0.0000    0.0000    0.0000 N   0  0  0  0  0  0  0  0  0  0  0  0
  1  2  1  0
  2  3  1  0
  2  4  1  0
  4  5  1  0
  5  6  1  0
  6  7  1  0
  7  8  2  0
  8  9  1  0
  9 10  2  0
 10 11  1  0
 11 12  2  0
 10 13  1  0
 13 14  2  0
 13 15  1  0
 15 16  2  0
 16 17  1  0
 17 18  1  0
 18 19  2  0
 18 20  1  0
 20 21  2  0
 20 22  2  0
 20 23  1  0
 12  7  1  0
 19 15  1  0
M  END
>  <pIC50>  (12) 
8.32

>  <ChEMBL_ID>  (12) 
CHEMBL544827

>  <document_journal>  (12) 
J. Med. Chem.

>  <bao_endpoint>  (12) 
BAO_0000190

>  <potential_duplicate>  (12) 
False

>  <uo_units>  (12) 
UO_0000065

>  <canonical_smiles>  (12) 
Cl.CC(C)CNCc1ccc(cc1)C(=O)c2csc(c2)S(=O)(=O)N

>  <parent_molecule_chembl_id>  (12) 
CHEMBL1193424

>  <assay_type>  (12) 
B

>  <src_id>  (12) 
1

>  <ligand_efficiency>  (12) 
{u'le': u'0.49', u'bei': u'23.6', u'sei': u'6.61', u'lle': u'5.86'}

>  <standard_flag>  (12) 
True

>  <molecule_chembl_id>  (12) 
CHEMBL544827

>  <target_organism>  (12) 
Homo sapiens

>  <standard_units>  (12) 
nM

>  <record_id>  (12) 
239319

>  <document_chembl_id>  (12) 
CHEMBL1125318

>  <bao_format>  (12) 
BAO_0000357

>  <data_validity_description>  (12) 
None

>  <activity_id>  (12) 
50048

>  <standard_type>  (12) 
IC50

>  <target_chembl_id>  (12) 
CHEMBL205

>  <data_validity_comment>  (12) 
None

>  <published_value>  (12) 
4.8E-9

>  <document_year>  (12) 
1992

>  <target_pref_name>  (12) 
Carbonic anhydrase II

>  <assay_chembl_id>  (12) 
CHEMBL656569

>  <standard_relation>  (12) 
=

>  <assay_description>  (12) 
Inhibition of human carbonic anhydrase II

>  <published_relation>  (12) 
=

>  <standard_value>  (12) 
4.8

>  <qudt_units>  (12) 
http://www.openphacts.org/units/Nanomolar

>  <target_tax_id>  (12) 
9606

>  <bao_label>  (12) 
single protein format

>  <published_units>  (12) 
M

>  <pchembl_value>  (12) 
8.32

>  <published_type>  (12) 
I50

>  <activity_comment>  (12) 
None

$$$$

     RDKit          

 20 21  0  0  0  0  0  0  0  0999 V2000
    0.0000    0.0000    0.0000 C   0  0  0  0  0  0  0  0  0  0  0  0
    0.0000    0.0000    0.0000 N   0  0  0  0  0  0  0  0  0  0  0  0
    0.0000    0.0000    0.0000 C   0  0  0  0  0  0  0  0  0  0  0  0
    0.0000    0.0000    0.0000 C   0  0  0  0  0  0  0  0  0  0  0  0
    0.0000    0.0000    0.0000 C   0  0  0  0  0  0  0  0  0  0  0  0
    0.0000    0.0000    0.0000 C   0  0  0  0  0  0  0  0  0  0  0  0
    0.0000    0.0000    0.0000 C   0  0  0  0  0  0  0  0  0  0  0  0
    0.0000    0.0000    0.0000 C   0  0  0  0  0  0  0  0  0  0  0  0
    0.0000    0.0000    0.0000 C   0  0  0  0  0  0  0  0  0  0  0  0
    0.0000    0.0000    0.0000 C   0  0  0  0  0  0  0  0  0  0  0  0
    0.0000    0.0000    0.0000 O   0  0  0  0  0  0  0  0  0  0  0  0
    0.0000    0.0000    0.0000 C   0  0  0  0  0  0  0  0  0  0  0  0
    0.0000    0.0000    0.0000 C   0  0  0  0  0  0  0  0  0  0  0  0
    0.0000    0.0000    0.0000 S   0  0  0  0  0  0  0  0  0  0  0  0
    0.0000    0.0000    0.0000 C   0  0  0  0  0  0  0  0  0  0  0  0
    0.0000    0.0000    0.0000 C   0  0  0  0  0  0  0  0  0  0  0  0
    0.0000    0.0000    0.0000 S   0  0  0  0  0  0  0  0  0  0  0  0
    0.0000    0.0000    0.0000 O   0  0  0  0  0  0  0  0  0  0  0  0
    0.0000    0.0000    0.0000 O   0  0  0  0  0  0  0  0  0  0  0  0
    0.0000    0.0000    0.0000 N   0  0  0  0  0  0  0  0  0  0  0  0
  1  2  1  0
  2  3  1  0
  3  4  1  0
  4  5  2  0
  5  6  1  0
  6  7  2  0
  7  8  1  0
  8  9  2  0
  7 10  1  0
 10 11  2  0
 10 12  1  0
 12 13  2  0
 13 14  1  0
 14 15  1  0
 15 16  2  0
 15 17  1  0
 17 18  2  0
 17 19  2  0
 17 20  1  0
  9  4  1  0
 16 12  1  0
M  END
>  <pIC50>  (13) 
8.35

>  <ChEMBL_ID>  (13) 
CHEMBL540329

>  <document_journal>  (13) 
J. Med. Chem.

>  <bao_endpoint>  (13) 
BAO_0000190

>  <potential_duplicate>  (13) 
False

>  <uo_units>  (13) 
UO_0000065

>  <canonical_smiles>  (13) 
Cl.CNCc1ccc(cc1)C(=O)c2csc(c2)S(=O)(=O)N

>  <parent_molecule_chembl_id>  (13) 
CHEMBL1190188

>  <assay_type>  (13) 
B

>  <src_id>  (13) 
1

>  <ligand_efficiency>  (13) 
{u'le': u'0.57', u'bei': u'26.89', u'sei': u'6.63', u'lle': u'7.09'}

>  <standard_flag>  (13) 
True

>  <molecule_chembl_id>  (13) 
CHEMBL540329

>  <target_organism>  (13) 
Homo sapiens

>  <standard_units>  (13) 
nM

>  <record_id>  (13) 
239320

>  <document_chembl_id>  (13) 
CHEMBL1125318

>  <bao_format>  (13) 
BAO_0000357

>  <data_validity_description>  (13) 
None

>  <activity_id>  (13) 
51281

>  <standard_type>  (13) 
IC50

>  <target_chembl_id>  (13) 
CHEMBL205

>  <data_validity_comment>  (13) 
None

>  <published_value>  (13) 
4.5E-9

>  <document_year>  (13) 
1992

>  <target_pref_name>  (13) 
Carbonic anhydrase II

>  <assay_chembl_id>  (13) 
CHEMBL656569

>  <standard_relation>  (13) 
=

>  <assay_description>  (13) 
Inhibition of human carbonic anhydrase II

>  <published_relation>  (13) 
=

>  <standard_value>  (13) 
4.5

>  <qudt_units>  (13) 
http://www.openphacts.org/units/Nanomolar

>  <target_tax_id>  (13) 
9606

>  <bao_label>  (13) 
single protein format

>  <published_units>  (13) 
M

>  <pchembl_value>  (13) 
8.35

>  <published_type>  (13) 
I50

>  <activity_comment>  (13) 
None

$$$$

     RDKit          

 23 24  0  0  0  0  0  0  0  0999 V2000
    0.0000    0.0000    0.0000 C   0  0  0  0  0  0  0  0  0  0  0  0
    0.0000    0.0000    0.0000 C   0  0  0  0  0  0  0  0  0  0  0  0
    0.0000    0.0000    0.0000 C   0  0  0  0  0  0  0  0  0  0  0  0
    0.0000    0.0000    0.0000 C   0  0  0  0  0  0  0  0  0  0  0  0
    0.0000    0.0000    0.0000 N   0  0  0  0  0  0  0  0  0  0  0  0
    0.0000    0.0000    0.0000 C   0  0  0  0  0  0  0  0  0  0  0  0
    0.0000    0.0000    0.0000 C   0  0  0  0  0  0  0  0  0  0  0  0
    0.0000    0.0000    0.0000 C   0  0  0  0  0  0  0  0  0  0  0  0
    0.0000    0.0000    0.0000 C   0  0  0  0  0  0  0  0  0  0  0  0
    0.0000    0.0000    0.0000 C   0  0  0  0  0  0  0  0  0  0  0  0
    0.0000    0.0000    0.0000 C   0  0  0  0  0  0  0  0  0  0  0  0
    0.0000    0.0000    0.0000 C   0  0  0  0  0  0  0  0  0  0  0  0
    0.0000    0.0000    0.0000 C   0  0  0  0  0  0  0  0  0  0  0  0
    0.0000    0.0000    0.0000 O   0  0  0  0  0  0  0  0  0  0  0  0
    0.0000    0.0000    0.0000 C   0  0  0  0  0  0  0  0  0  0  0  0
    0.0000    0.0000    0.0000 C   0  0  0  0  0  0  0  0  0  0  0  0
    0.0000    0.0000    0.0000 S   0  0  0  0  0  0  0  0  0  0  0  0
    0.0000    0.0000    0.0000 C   0  0  0  0  0  0  0  0  0  0  0  0
    0.0000    0.0000    0.0000 C   0  0  0  0  0  0  0  0  0  0  0  0
    0.0000    0.0000    0.0000 S   0  0  0  0  0  0  0  0  0  0  0  0
    0.0000    0.0000    0.0000 O   0  0  0  0  0  0  0  0  0  0  0  0
    0.0000    0.0000    0.0000 O   0  0  0  0  0  0  0  0  0  0  0  0
    0.0000    0.0000    0.0000 N   0  0  0  0  0  0  0  0  0  0  0  0
  1  2  1  0
  2  3  1  0
  3  4  1  0
  4  5  1  0
  5  6  1  0
  6  7  1  0
  7  8  2  0
  8  9  1  0
  9 10  2  0
 10 11  1  0
 11 12  2  0
 10 13  1  0
 13 14  2  0
 13 15  1  0
 15 16  2  0
 16 17  1  0
 17 18  1  0
 18 19  2  0
 18 20  1  0
 20 21  2  0
 20 22  2  0
 20 23  1  0
 12  7  1  0
 19 15  1  0
M  END
>  <pIC50>  (14) 
7.92

>  <ChEMBL_ID>  (14) 
CHEMBL541087

>  <document_journal>  (14) 
J. Med. Chem.

>  <bao_endpoint>  (14) 
BAO_0000190

>  <potential_duplicate>  (14) 
False

>  <uo_units>  (14) 
UO_0000065

>  <canonical_smiles>  (14) 
Cl.CCCCNCc1ccc(cc1)C(=O)c2csc(c2)S(=O)(=O)N

>  <parent_molecule_chembl_id>  (14) 
CHEMBL1190546

>  <assay_type>  (14) 
B

>  <src_id>  (14) 
1

>  <ligand_efficiency>  (14) 
{u'le': u'0.47', u'bei': u'22.47', u'sei': u'6.29', u'lle': u'5.33'}

>  <standard_flag>  (14) 
True

>  <molecule_chembl_id>  (14) 
CHEMBL541087

>  <target_organism>  (14) 
Homo sapiens

>  <standard_units>  (14) 
nM

>  <record_id>  (14) 
239317

>  <document_chembl_id>  (14) 
CHEMBL1125318

>  <bao_format>  (14) 
BAO_0000357

>  <data_validity_description>  (14) 
None

>  <activity_id>  (14) 
51289

>  <standard_type>  (14) 
IC50

>  <target_chembl_id>  (14) 
CHEMBL205

>  <data_validity_comment>  (14) 
None

>  <published_value>  (14) 
1.2E-8

>  <document_year>  (14) 
1992

>  <target_pref_name>  (14) 
Carbonic anhydrase II

>  <assay_chembl_id>  (14) 
CHEMBL656569

>  <standard_relation>  (14) 
=

>  <assay_description>  (14) 
Inhibition of human carbonic anhydrase II

>  <published_relation>  (14) 
=

>  <standard_value>  (14) 
12

>  <qudt_units>  (14) 
http://www.openphacts.org/units/Nanomolar

>  <target_tax_id>  (14) 
9606

>  <bao_label>  (14) 
single protein format

>  <published_units>  (14) 
M

>  <pchembl_value>  (14) 
7.92

>  <published_type>  (14) 
I50

>  <activity_comment>  (14) 
None

$$$$

     RDKit          

 19 20  0  0  0  0  0  0  0  0999 V2000
    0.0000    0.0000    0.0000 N   0  0  0  0  0  0  0  0  0  0  0  0
    0.0000    0.0000    0.0000 S   0  0  0  0  0  0  0  0  0  0  0  0
    0.0000    0.0000    0.0000 O   0  0  0  0  0  0  0  0  0  0  0  0
    0.0000    0.0000    0.0000 O   0  0  0  0  0  0  0  0  0  0  0  0
    0.0000    0.0000    0.0000 C   0  0  0  0  0  0  0  0  0  0  0  0
    0.0000    0.0000    0.0000 C   0  0  0  0  0  0  0  0  0  0  0  0
    0.0000    0.0000    0.0000 C   0  0  0  0  0  0  0  0  0  0  0  0
    0.0000    0.0000    0.0000 C   0  0  0  0  0  0  0  0  0  0  0  0
    0.0000    0.0000    0.0000 S   0  0  0  0  0  0  0  0  0  0  0  0
    0.0000    0.0000    0.0000 S   0  0  0  0  0  0  0  0  0  0  0  0
    0.0000    0.0000    0.0000 O   0  0  0  0  0  0  0  0  0  0  0  0
    0.0000    0.0000    0.0000 O   0  0  0  0  0  0  0  0  0  0  0  0
    0.0000    0.0000    0.0000 C   0  0  0  0  0  0  0  0  0  0  0  0
    0.0000    0.0000    0.0000 C   0  0  0  0  0  0  0  0  0  0  0  0
    0.0000    0.0000    0.0000 C   0  0  0  0  0  0  0  0  0  0  0  0
    0.0000    0.0000    0.0000 C   0  0  0  0  0  0  0  0  0  0  0  0
    0.0000    0.0000    0.0000 C   0  0  0  0  0  0  0  0  0  0  0  0
    0.0000    0.0000    0.0000 O   0  0  0  0  0  0  0  0  0  0  0  0
    0.0000    0.0000    0.0000 C   0  0  0  0  0  0  0  0  0  0  0  0
  1  2  1  0
  2  3  2  0
  2  4  2  0
  2  5  1  0
  5  6  2  0
  6  7  1  0
  7  8  2  0
  8  9  1  0
  7 10  1  0
 10 11  2  0
 10 12  2  0
 10 13  1  0
 13 14  2  0
 14 15  1  0
 15 16  2  0
 16 17  1  0
 17 18  1  0
 17 19  2  0
  9  5  1  0
 19 13  1  0
M  END
>  <pIC50>  (15) 
8.68

>  <ChEMBL_ID>  (15) 
CHEMBL127817

>  <document_journal>  (15) 
J. Med. Chem.

>  <bao_endpoint>  (15) 
BAO_0000190

>  <potential_duplicate>  (15) 
False

>  <uo_units>  (15) 
UO_0000065

>  <canonical_smiles>  (15) 
NS(=O)(=O)c1cc(cs1)S(=O)(=O)c2cccc(O)c2

>  <parent_molecule_chembl_id>  (15) 
CHEMBL127817

>  <assay_type>  (15) 
B

>  <src_id>  (15) 
1

>  <ligand_efficiency>  (15) 
{u'le': u'0.62', u'bei': u'27.17', u'sei': u'5.44', u'lle': u'7.5'}

>  <standard_flag>  (15) 
True

>  <molecule_chembl_id>  (15) 
CHEMBL127817

>  <target_organism>  (15) 
Homo sapiens

>  <standard_units>  (15) 
nM

>  <record_id>  (15) 
239333

>  <document_chembl_id>  (15) 
CHEMBL1125318

>  <bao_format>  (15) 
BAO_0000357

>  <data_validity_description>  (15) 
None

>  <activity_id>  (15) 
52543

>  <standard_type>  (15) 
IC50

>  <target_chembl_id>  (15) 
CHEMBL205

>  <data_validity_comment>  (15) 
None

>  <published_value>  (15) 
2.1E-9

>  <document_year>  (15) 
1992

>  <target_pref_name>  (15) 
Carbonic anhydrase II

>  <assay_chembl_id>  (15) 
CHEMBL656569

>  <standard_relation>  (15) 
=

>  <assay_description>  (15) 
Inhibition of human carbonic anhydrase II

>  <published_relation>  (15) 
=

>  <standard_value>  (15) 
2.1

>  <qudt_units>  (15) 
http://www.openphacts.org/units/Nanomolar

>  <target_tax_id>  (15) 
9606

>  <bao_label>  (15) 
single protein format

>  <published_units>  (15) 
M

>  <pchembl_value>  (15) 
8.68

>  <published_type>  (15) 
I50

>  <activity_comment>  (15) 
None

$$$$

     RDKit          

 25 27  0  0  0  0  0  0  0  0999 V2000
    0.0000    0.0000    0.0000 C   0  0  0  0  0  0  0  0  0  0  0  0
    0.0000    0.0000    0.0000 N   0  0  0  0  0  0  0  0  0  0  0  0
    0.0000    0.0000    0.0000 C   0  0  0  0  0  0  0  0  0  0  0  0
    0.0000    0.0000    0.0000 C   0  0  0  0  0  0  0  0  0  0  0  0
    0.0000    0.0000    0.0000 N   0  0  0  0  0  0  0  0  0  0  0  0
    0.0000    0.0000    0.0000 C   0  0  0  0  0  0  0  0  0  0  0  0
    0.0000    0.0000    0.0000 C   0  0  0  0  0  0  0  0  0  0  0  0
    0.0000    0.0000    0.0000 C   0  0  0  0  0  0  0  0  0  0  0  0
    0.0000    0.0000    0.0000 C   0  0  0  0  0  0  0  0  0  0  0  0
    0.0000    0.0000    0.0000 C   0  0  0  0  0  0  0  0  0  0  0  0
    0.0000    0.0000    0.0000 C   0  0  0  0  0  0  0  0  0  0  0  0
    0.0000    0.0000    0.0000 C   0  0  0  0  0  0  0  0  0  0  0  0
    0.0000    0.0000    0.0000 C   0  0  0  0  0  0  0  0  0  0  0  0
    0.0000    0.0000    0.0000 O   0  0  0  0  0  0  0  0  0  0  0  0
    0.0000    0.0000    0.0000 C   0  0  0  0  0  0  0  0  0  0  0  0
    0.0000    0.0000    0.0000 C   0  0  0  0  0  0  0  0  0  0  0  0
    0.0000    0.0000    0.0000 S   0  0  0  0  0  0  0  0  0  0  0  0
    0.0000    0.0000    0.0000 C   0  0  0  0  0  0  0  0  0  0  0  0
    0.0000    0.0000    0.0000 C   0  0  0  0  0  0  0  0  0  0  0  0
    0.0000    0.0000    0.0000 S   0  0  0  0  0  0  0  0  0  0  0  0
    0.0000    0.0000    0.0000 O   0  0  0  0  0  0  0  0  0  0  0  0
    0.0000    0.0000    0.0000 O   0  0  0  0  0  0  0  0  0  0  0  0
    0.0000    0.0000    0.0000 N   0  0  0  0  0  0  0  0  0  0  0  0
    0.0000    0.0000    0.0000 C   0  0  0  0  0  0  0  0  0  0  0  0
    0.0000    0.0000    0.0000 C   0  0  0  0  0  0  0  0  0  0  0  0
  1  2  1  0
  2  3  1  0
  3  4  1  0
  4  5  1  0
  5  6  1  0
  6  7  1  0
  7  8  2  0
  8  9  1  0
  9 10  2  0
 10 11  1  0
 11 12  2  0
 10 13  1  0
 13 14  2  0
 13 15  1  0
 15 16  2  0
 16 17  1  0
 17 18  1  0
 18 19  2  0
 18 20  1  0
 20 21  2  0
 20 22  2  0
 20 23  1  0
  5 24  1  0
 24 25  1  0
 25  2  1  0
 12  7  1  0
 19 15  1  0
M  END
>  <pIC50>  (16) 
8.4

>  <ChEMBL_ID>  (16) 
CHEMBL541341

>  <document_journal>  (16) 
J. Med. Chem.

>  <bao_endpoint>  (16) 
BAO_0000190

>  <potential_duplicate>  (16) 
False

>  <uo_units>  (16) 
UO_0000065

>  <canonical_smiles>  (16) 
Cl.CN1CCN(Cc2ccc(cc2)C(=O)c3csc(c3)S(=O)(=O)N)CC1

>  <parent_molecule_chembl_id>  (16) 
CHEMBL1190667

>  <assay_type>  (16) 
B

>  <src_id>  (16) 
1

>  <ligand_efficiency>  (16) 
{u'le': u'0.46', u'bei': u'22.13', u'sei': u'6.98', u'lle': u'6.64'}

>  <standard_flag>  (16) 
True

>  <molecule_chembl_id>  (16) 
CHEMBL541341

>  <target_organism>  (16) 
Homo sapiens

>  <standard_units>  (16) 
nM

>  <record_id>  (16) 
239315

>  <document_chembl_id>  (16) 
CHEMBL1125318

>  <bao_format>  (16) 
BAO_0000357

>  <data_validity_description>  (16) 
None

>  <activity_id>  (16) 
53829

>  <standard_type>  (16) 
IC50

>  <target_chembl_id>  (16) 
CHEMBL205

>  <data_validity_comment>  (16) 
None

>  <published_value>  (16) 
4E-9

>  <document_year>  (16) 
1992

>  <target_pref_name>  (16) 
Carbonic anhydrase II

>  <assay_chembl_id>  (16) 
CHEMBL656569

>  <standard_relation>  (16) 
=

>  <assay_description>  (16) 
Inhibition of human carbonic anhydrase II

>  <published_relation>  (16) 
=

>  <standard_value>  (16) 
4

>  <qudt_units>  (16) 
http://www.openphacts.org/units/Nanomolar

>  <target_tax_id>  (16) 
9606

>  <bao_label>  (16) 
single protein format

>  <published_units>  (16) 
M

>  <pchembl_value>  (16) 
8.4

>  <published_type>  (16) 
I50

>  <activity_comment>  (16) 
None

$$$$

     RDKit          

 25 26  0  0  0  0  0  0  0  0999 V2000
    0.0000    0.0000    0.0000 C   0  0  0  0  0  0  0  0  0  0  0  0
    0.0000    0.0000    0.0000 C   0  0  0  0  0  0  0  0  0  0  0  0
    0.0000    0.0000    0.0000 C   0  0  0  0  0  0  0  0  0  0  0  0
    0.0000    0.0000    0.0000 C   0  0  0  0  0  0  0  0  0  0  0  0
    0.0000    0.0000    0.0000 N   0  0  0  0  0  0  0  0  0  0  0  0
    0.0000    0.0000    0.0000 C   0  0  0  0  0  0  0  0  0  0  0  0
    0.0000    0.0000    0.0000 C   0  0  0  0  0  0  0  0  0  0  0  0
    0.0000    0.0000    0.0000 C   0  0  0  0  0  0  0  0  0  0  0  0
    0.0000    0.0000    0.0000 C   0  0  0  0  0  0  0  0  0  0  0  0
    0.0000    0.0000    0.0000 C   0  0  0  0  0  0  0  0  0  0  0  0
    0.0000    0.0000    0.0000 C   0  0  0  0  0  0  0  0  0  0  0  0
    0.0000    0.0000    0.0000 C   0  0  0  0  0  0  0  0  0  0  0  0
    0.0000    0.0000    0.0000 O   0  0  0  0  0  0  0  0  0  0  0  0
    0.0000    0.0000    0.0000 S   0  0  0  0  0  0  0  0  0  0  0  0
    0.0000    0.0000    0.0000 O   0  0  0  0  0  0  0  0  0  0  0  0
    0.0000    0.0000    0.0000 O   0  0  0  0  0  0  0  0  0  0  0  0
    0.0000    0.0000    0.0000 C   0  0  0  0  0  0  0  0  0  0  0  0
    0.0000    0.0000    0.0000 C   0  0  0  0  0  0  0  0  0  0  0  0
    0.0000    0.0000    0.0000 S   0  0  0  0  0  0  0  0  0  0  0  0
    0.0000    0.0000    0.0000 C   0  0  0  0  0  0  0  0  0  0  0  0
    0.0000    0.0000    0.0000 C   0  0  0  0  0  0  0  0  0  0  0  0
    0.0000    0.0000    0.0000 S   0  0  0  0  0  0  0  0  0  0  0  0
    0.0000    0.0000    0.0000 O   0  0  0  0  0  0  0  0  0  0  0  0
    0.0000    0.0000    0.0000 O   0  0  0  0  0  0  0  0  0  0  0  0
    0.0000    0.0000    0.0000 N   0  0  0  0  0  0  0  0  0  0  0  0
  1  2  1  0
  2  3  1  0
  2  4  1  0
  4  5  1  0
  5  6  1  0
  6  7  1  0
  7  8  2  0
  8  9  1  0
  9 10  2  0
 10 11  1  0
 11 12  2  0
 12 13  1  0
 10 14  1  0
 14 15  2  0
 14 16  2  0
 14 17  1  0
 17 18  2  0
 18 19  1  0
 19 20  1  0
 20 21  2  0
 20 22  1  0
 22 23  2  0
 22 24  2  0
 22 25  1  0
 12  7  1  0
 21 17  1  0
M  END
>  <pIC50>  (17) 
7.85

>  <ChEMBL_ID>  (17) 
CHEMBL555312

>  <document_journal>  (17) 
J. Med. Chem.

>  <bao_endpoint>  (17) 
BAO_0000190

>  <potential_duplicate>  (17) 
False

>  <uo_units>  (17) 
UO_0000065

>  <canonical_smiles>  (17) 
Cl.CC(C)CNCc1ccc(cc1O)S(=O)(=O)c2csc(c2)S(=O)(=O)N

>  <parent_molecule_chembl_id>  (17) 
CHEMBL1195765

>  <assay_type>  (17) 
B

>  <src_id>  (17) 
1

>  <ligand_efficiency>  (17) 
{u'le': u'0.43', u'bei': u'19.42', u'sei': u'4.58', u'lle': u'5.94'}

>  <standard_flag>  (17) 
True

>  <molecule_chembl_id>  (17) 
CHEMBL555312

>  <target_organism>  (17) 
Homo sapiens

>  <standard_units>  (17) 
nM

>  <record_id>  (17) 
239322

>  <document_chembl_id>  (17) 
CHEMBL1125318

>  <bao_format>  (17) 
BAO_0000357

>  <data_validity_description>  (17) 
None

>  <activity_id>  (17) 
53836

>  <standard_type>  (17) 
IC50

>  <target_chembl_id>  (17) 
CHEMBL205

>  <data_validity_comment>  (17) 
None

>  <published_value>  (17) 
1.4E-8

>  <document_year>  (17) 
1992

>  <target_pref_name>  (17) 
Carbonic anhydrase II

>  <assay_chembl_id>  (17) 
CHEMBL656569

>  <standard_relation>  (17) 
=

>  <assay_description>  (17) 
Inhibition of human carbonic anhydrase II

>  <published_relation>  (17) 
=

>  <standard_value>  (17) 
14

>  <qudt_units>  (17) 
http://www.openphacts.org/units/Nanomolar

>  <target_tax_id>  (17) 
9606

>  <bao_label>  (17) 
single protein format

>  <published_units>  (17) 
M

>  <pchembl_value>  (17) 
7.85

>  <published_type>  (17) 
I50

>  <activity_comment>  (17) 
None

$$$$

     RDKit          

 23 24  0  0  0  0  0  0  0  0999 V2000
    0.0000    0.0000    0.0000 C   0  0  0  0  0  0  0  0  0  0  0  0
    0.0000    0.0000    0.0000 C   0  0  0  0  0  0  0  0  0  0  0  0
    0.0000    0.0000    0.0000 C   0  0  0  0  0  0  0  0  0  0  0  0
    0.0000    0.0000    0.0000 C   0  0  0  0  0  0  0  0  0  0  0  0
    0.0000    0.0000    0.0000 N   0  0  0  0  0  0  0  0  0  0  0  0
    0.0000    0.0000    0.0000 C   0  0  0  0  0  0  0  0  0  0  0  0
    0.0000    0.0000    0.0000 C   0  0  0  0  0  0  0  0  0  0  0  0
    0.0000    0.0000    0.0000 C   0  0  0  0  0  0  0  0  0  0  0  0
    0.0000    0.0000    0.0000 C   0  0  0  0  0  0  0  0  0  0  0  0
    0.0000    0.0000    0.0000 C   0  0  0  0  0  0  0  0  0  0  0  0
    0.0000    0.0000    0.0000 C   0  0  0  0  0  0  0  0  0  0  0  0
    0.0000    0.0000    0.0000 C   0  0  0  0  0  0  0  0  0  0  0  0
    0.0000    0.0000    0.0000 C   0  0  0  0  0  0  0  0  0  0  0  0
    0.0000    0.0000    0.0000 O   0  0  0  0  0  0  0  0  0  0  0  0
    0.0000    0.0000    0.0000 C   0  0  0  0  0  0  0  0  0  0  0  0
    0.0000    0.0000    0.0000 C   0  0  0  0  0  0  0  0  0  0  0  0
    0.0000    0.0000    0.0000 S   0  0  0  0  0  0  0  0  0  0  0  0
    0.0000    0.0000    0.0000 C   0  0  0  0  0  0  0  0  0  0  0  0
    0.0000    0.0000    0.0000 C   0  0  0  0  0  0  0  0  0  0  0  0
    0.0000    0.0000    0.0000 S   0  0  0  0  0  0  0  0  0  0  0  0
    0.0000    0.0000    0.0000 O   0  0  0  0  0  0  0  0  0  0  0  0
    0.0000    0.0000    0.0000 O   0  0  0  0  0  0  0  0  0  0  0  0
    0.0000    0.0000    0.0000 N   0  0  0  0  0  0  0  0  0  0  0  0
  1  2  1  0
  2  3  1  0
  2  4  1  0
  4  5  1  0
  5  6  1  0
  6  7  1  0
  7  8  2  0
  8  9  1  0
  9 10  2  0
 10 11  1  0
 11 12  2  0
 11 13  1  0
 13 14  2  0
 13 15  1  0
 15 16  2  0
 16 17  1  0
 17 18  1  0
 18 19  2  0
 18 20  1  0
 20 21  2  0
 20 22  2  0
 20 23  1  0
 12  7  1  0
 19 15  1  0
M  END
>  <pIC50>  (18) 
7.89

>  <ChEMBL_ID>  (18) 
CHEMBL555186

>  <document_journal>  (18) 
J. Med. Chem.

>  <bao_endpoint>  (18) 
BAO_0000190

>  <potential_duplicate>  (18) 
False

>  <uo_units>  (18) 
UO_0000065

>  <canonical_smiles>  (18) 
Cl.CC(C)CNCc1cccc(c1)C(=O)c2csc(c2)S(=O)(=O)N

>  <parent_molecule_chembl_id>  (18) 
CHEMBL1195712

>  <assay_type>  (18) 
B

>  <src_id>  (18) 
1

>  <ligand_efficiency>  (18) 
{u'le': u'0.47', u'bei': u'22.37', u'sei': u'6.26', u'lle': u'5.43'}

>  <standard_flag>  (18) 
True

>  <molecule_chembl_id>  (18) 
CHEMBL555186

>  <target_organism>  (18) 
Homo sapiens

>  <standard_units>  (18) 
nM

>  <record_id>  (18) 
239345

>  <document_chembl_id>  (18) 
CHEMBL1125318

>  <bao_format>  (18) 
BAO_0000357

>  <data_validity_description>  (18) 
None

>  <activity_id>  (18) 
55011

>  <standard_type>  (18) 
IC50

>  <target_chembl_id>  (18) 
CHEMBL205

>  <data_validity_comment>  (18) 
None

>  <published_value>  (18) 
1.3E-8

>  <document_year>  (18) 
1992

>  <target_pref_name>  (18) 
Carbonic anhydrase II

>  <assay_chembl_id>  (18) 
CHEMBL656569

>  <standard_relation>  (18) 
=

>  <assay_description>  (18) 
Inhibition of human carbonic anhydrase II

>  <published_relation>  (18) 
=

>  <standard_value>  (18) 
13

>  <qudt_units>  (18) 
http://www.openphacts.org/units/Nanomolar

>  <target_tax_id>  (18) 
9606

>  <bao_label>  (18) 
single protein format

>  <published_units>  (18) 
M

>  <pchembl_value>  (18) 
7.89

>  <published_type>  (18) 
I50

>  <activity_comment>  (18) 
None

$$$$

     RDKit          

 20 21  0  0  0  0  0  0  0  0999 V2000
    0.0000    0.0000    0.0000 C   0  0  0  0  0  0  0  0  0  0  0  0
    0.0000    0.0000    0.0000 O   0  0  0  0  0  0  0  0  0  0  0  0
    0.0000    0.0000    0.0000 C   0  0  0  0  0  0  0  0  0  0  0  0
    0.0000    0.0000    0.0000 C   0  0  0  0  0  0  0  0  0  0  0  0
    0.0000    0.0000    0.0000 C   0  0  0  0  0  0  0  0  0  0  0  0
    0.0000    0.0000    0.0000 C   0  0  0  0  0  0  0  0  0  0  0  0
    0.0000    0.0000    0.0000 C   0  0  0  0  0  0  0  0  0  0  0  0
    0.0000    0.0000    0.0000 C   0  0  0  0  0  0  0  0  0  0  0  0
    0.0000    0.0000    0.0000 S   0  0  0  0  0  0  0  0  0  0  0  0
    0.0000    0.0000    0.0000 O   0  0  0  0  0  0  0  0  0  0  0  0
    0.0000    0.0000    0.0000 O   0  0  0  0  0  0  0  0  0  0  0  0
    0.0000    0.0000    0.0000 C   0  0  0  0  0  0  0  0  0  0  0  0
    0.0000    0.0000    0.0000 C   0  0  0  0  0  0  0  0  0  0  0  0
    0.0000    0.0000    0.0000 S   0  0  0  0  0  0  0  0  0  0  0  0
    0.0000    0.0000    0.0000 C   0  0  0  0  0  0  0  0  0  0  0  0
    0.0000    0.0000    0.0000 C   0  0  0  0  0  0  0  0  0  0  0  0
    0.0000    0.0000    0.0000 S   0  0  0  0  0  0  0  0  0  0  0  0
    0.0000    0.0000    0.0000 O   0  0  0  0  0  0  0  0  0  0  0  0
    0.0000    0.0000    0.0000 O   0  0  0  0  0  0  0  0  0  0  0  0
    0.0000    0.0000    0.0000 N   0  0  0  0  0  0  0  0  0  0  0  0
  1  2  1  0
  2  3  1  0
  3  4  2  0
  4  5  1  0
  5  6  2  0
  6  7  1  0
  7  8  2  0
  6  9  1  0
  9 10  2  0
  9 11  2  0
  9 12  1  0
 12 13  2  0
 13 14  1  0
 14 15  1  0
 15 16  2  0
 15 17  1  0
 17 18  2  0
 17 19  2  0
 17 20  1  0
  8  3  1  0
 16 12  1  0
M  END
>  <pIC50>  (19) 
7.35

>  <ChEMBL_ID>  (19) 
CHEMBL262726

>  <document_journal>  (19) 
J. Med. Chem.

>  <bao_endpoint>  (19) 
BAO_0000190

>  <potential_duplicate>  (19) 
False

>  <uo_units>  (19) 
UO_0000065

>  <canonical_smiles>  (19) 
COc1ccc(cc1)S(=O)(=O)c2csc(c2)S(=O)(=O)N

>  <parent_molecule_chembl_id>  (19) 
CHEMBL262726

>  <assay_type>  (19) 
B

>  <src_id>  (19) 
1

>  <ligand_efficiency>  (19) 
{u'le': u'0.5', u'bei': u'22.04', u'sei': u'4.95', u'lle': u'5.94'}

>  <standard_flag>  (19) 
True

>  <molecule_chembl_id>  (19) 
CHEMBL262726

>  <target_organism>  (19) 
Homo sapiens

>  <standard_units>  (19) 
nM

>  <record_id>  (19) 
239341

>  <document_chembl_id>  (19) 
CHEMBL1125318

>  <bao_format>  (19) 
BAO_0000357

>  <data_validity_description>  (19) 
None

>  <activity_id>  (19) 
56279

>  <standard_type>  (19) 
IC50

>  <target_chembl_id>  (19) 
CHEMBL205

>  <data_validity_comment>  (19) 
None

>  <published_value>  (19) 
4.5E-8

>  <document_year>  (19) 
1992

>  <target_pref_name>  (19) 
Carbonic anhydrase II

>  <assay_chembl_id>  (19) 
CHEMBL656569

>  <standard_relation>  (19) 
=

>  <assay_description>  (19) 
Inhibition of human carbonic anhydrase II

>  <published_relation>  (19) 
=

>  <standard_value>  (19) 
45

>  <qudt_units>  (19) 
http://www.openphacts.org/units/Nanomolar

>  <target_tax_id>  (19) 
9606

>  <bao_label>  (19) 
single protein format

>  <published_units>  (19) 
M

>  <pchembl_value>  (19) 
7.35

>  <published_type>  (19) 
I50

>  <activity_comment>  (19) 
None

$$$$

     RDKit          

 27 29  0  0  0  0  0  0  0  0999 V2000
    0.0000    0.0000    0.0000 N   0  0  0  0  0  0  0  0  0  0  0  0
    0.0000    0.0000    0.0000 S   0  0  0  0  0  0  0  0  0  0  0  0
    0.0000    0.0000    0.0000 O   0  0  0  0  0  0  0  0  0  0  0  0
    0.0000    0.0000    0.0000 O   0  0  0  0  0  0  0  0  0  0  0  0
    0.0000    0.0000    0.0000 C   0  0  0  0  0  0  0  0  0  0  0  0
    0.0000    0.0000    0.0000 C   0  0  0  0  0  0  0  0  0  0  0  0
    0.0000    0.0000    0.0000 C   0  0  0  0  0  0  0  0  0  0  0  0
    0.0000    0.0000    0.0000 C   0  0  0  0  0  0  0  0  0  0  0  0
    0.0000    0.0000    0.0000 S   0  0  0  0  0  0  0  0  0  0  0  0
    0.0000    0.0000    0.0000 S   0  0  0  0  0  0  0  0  0  0  0  0
    0.0000    0.0000    0.0000 O   0  0  0  0  0  0  0  0  0  0  0  0
    0.0000    0.0000    0.0000 O   0  0  0  0  0  0  0  0  0  0  0  0
    0.0000    0.0000    0.0000 C   0  0  0  0  0  0  0  0  0  0  0  0
    0.0000    0.0000    0.0000 C   0  0  0  0  0  0  0  0  0  0  0  0
    0.0000    0.0000    0.0000 C   0  0  0  0  0  0  0  0  0  0  0  0
    0.0000    0.0000    0.0000 C   0  0  0  0  0  0  0  0  0  0  0  0
    0.0000    0.0000    0.0000 C   0  0  0  0  0  0  0  0  0  0  0  0
    0.0000    0.0000    0.0000 C   0  0  0  0  0  0  0  0  0  0  0  0
    0.0000    0.0000    0.0000 C   0  0  0  0  0  0  0  0  0  0  0  0
    0.0000    0.0000    0.0000 N   0  0  0  0  0  0  0  0  0  0  0  0
    0.0000    0.0000    0.0000 C   0  0  0  0  0  0  0  0  0  0  0  0
    0.0000    0.0000    0.0000 C   0  0  0  0  0  0  0  0  0  0  0  0
    0.0000    0.0000    0.0000 C   0  0  0  0  0  0  0  0  0  0  0  0
    0.0000    0.0000    0.0000 C   0  0  0  0  0  0  0  0  0  0  0  0
    0.0000    0.0000    0.0000 C   0  0  0  0  0  0  0  0  0  0  0  0
    0.0000    0.0000    0.0000 C   0  0  0  0  0  0  0  0  0  0  0  0
    0.0000    0.0000    0.0000 N   0  0  0  0  0  0  0  0  0  0  0  0
  1  2  1  0
  2  3  2  0
  2  4  2  0
  2  5  1  0
  5  6  2  0
  6  7  1  0
  7  8  2  0
  8  9  1  0
  7 10  1  0
 10 11  2  0
 10 12  2  0
 10 13  1  0
 13 14  2  0
 14 15  1  0
 15 16  2  0
 16 17  1  0
 17 18  2  0
 18 19  1  0
 19 20  1  0
 20 21  1  0
 21 22  1  0
 22 23  2  0
 23 24  1  0
 24 25  2  0
 25 26  1  0
 26 27  2  0
  9  5  1  0
 18 13  1  0
 27 22  1  0
M  END
>  <pIC50>  (20) 
7.82

>  <ChEMBL_ID>  (20) 
CHEMBL557231

>  <document_journal>  (20) 
J. Med. Chem.

>  <bao_endpoint>  (20) 
BAO_0000190

>  <potential_duplicate>  (20) 
False

>  <uo_units>  (20) 
UO_0000065

>  <canonical_smiles>  (20) 
Cl.NS(=O)(=O)c1cc(cs1)S(=O)(=O)c2ccccc2CNCc3ccccn3

>  <parent_molecule_chembl_id>  (20) 
CHEMBL1196517

>  <assay_type>  (20) 
B

>  <src_id>  (20) 
1

>  <ligand_efficiency>  (20) 
{u'le': u'0.4', u'bei': u'18.47', u'sei': u'4.76', u'lle': u'6.21'}

>  <standard_flag>  (20) 
True

>  <molecule_chembl_id>  (20) 
CHEMBL557231

>  <target_organism>  (20) 
Homo sapiens

>  <standard_units>  (20) 
nM

>  <record_id>  (20) 
239326

>  <document_chembl_id>  (20) 
CHEMBL1125318

>  <bao_format>  (20) 
BAO_0000357

>  <data_validity_description>  (20) 
None

>  <activity_id>  (20) 
58671

>  <standard_type>  (20) 
IC50

>  <target_chembl_id>  (20) 
CHEMBL205

>  <data_validity_comment>  (20) 
None

>  <published_value>  (20) 
1.5E-8

>  <document_year>  (20) 
1992

>  <target_pref_name>  (20) 
Carbonic anhydrase II

>  <assay_chembl_id>  (20) 
CHEMBL656569

>  <standard_relation>  (20) 
=

>  <assay_description>  (20) 
Inhibition of human carbonic anhydrase II

>  <published_relation>  (20) 
=

>  <standard_value>  (20) 
15

>  <qudt_units>  (20) 
http://www.openphacts.org/units/Nanomolar

>  <target_tax_id>  (20) 
9606

>  <bao_label>  (20) 
single protein format

>  <published_units>  (20) 
M

>  <pchembl_value>  (20) 
7.82

>  <published_type>  (20) 
I50

>  <activity_comment>  (20) 
None

$$$$

     RDKit          

 19 20  0  0  0  0  0  0  0  0999 V2000
    0.0000    0.0000    0.0000 N   0  0  0  0  0  0  0  0  0  0  0  0
    0.0000    0.0000    0.0000 S   0  0  0  0  0  0  0  0  0  0  0  0
    0.0000    0.0000    0.0000 O   0  0  0  0  0  0  0  0  0  0  0  0
    0.0000    0.0000    0.0000 O   0  0  0  0  0  0  0  0  0  0  0  0
    0.0000    0.0000    0.0000 C   0  0  0  0  0  0  0  0  0  0  0  0
    0.0000    0.0000    0.0000 O   0  0  0  0  0  0  0  0  0  0  0  0
    0.0000    0.0000    0.0000 C   0  0  0  0  0  0  0  0  0  0  0  0
    0.0000    0.0000    0.0000 C   0  0  0  0  0  0  0  0  0  0  0  0
    0.0000    0.0000    0.0000 C   0  0  0  0  0  0  0  0  0  0  0  0
    0.0000    0.0000    0.0000 S   0  0  0  0  0  0  0  0  0  0  0  0
    0.0000    0.0000    0.0000 O   0  0  0  0  0  0  0  0  0  0  0  0
    0.0000    0.0000    0.0000 O   0  0  0  0  0  0  0  0  0  0  0  0
    0.0000    0.0000    0.0000 C   0  0  0  0  0  0  0  0  0  0  0  0
    0.0000    0.0000    0.0000 C   0  0  0  0  0  0  0  0  0  0  0  0
    0.0000    0.0000    0.0000 C   0  0  0  0  0  0  0  0  0  0  0  0
    0.0000    0.0000    0.0000 C   0  0  0  0  0  0  0  0  0  0  0  0
    0.0000    0.0000    0.0000 O   0  0  0  0  0  0  0  0  0  0  0  0
    0.0000    0.0000    0.0000 C   0  0  0  0  0  0  0  0  0  0  0  0
    0.0000    0.0000    0.0000 C   0  0  0  0  0  0  0  0  0  0  0  0
  1  2  1  0
  2  3  2  0
  2  4  2  0
  2  5  1  0
  5  6  1  0
  6  7  1  0
  7  8  2  0
  8  9  1  0
  8 10  1  0
 10 11  2  0
 10 12  2  0
 10 13  1  0
 13 14  2  0
 14 15  1  0
 15 16  2  0
 16 17  1  0
 16 18  1  0
 18 19  2  0
  9  5  2  0
 19 13  1  0
M  END
>  <pIC50>  (21) 
8.38

>  <ChEMBL_ID>  (21) 
CHEMBL333747

>  <document_journal>  (21) 
J. Med. Chem.

>  <bao_endpoint>  (21) 
BAO_0000190

>  <potential_duplicate>  (21) 
False

>  <uo_units>  (21) 
UO_0000065

>  <canonical_smiles>  (21) 
NS(=O)(=O)c1occ(c1)S(=O)(=O)c2ccc(O)cc2

>  <parent_molecule_chembl_id>  (21) 
CHEMBL333747

>  <assay_type>  (21) 
B

>  <src_id>  (21) 
1

>  <ligand_efficiency>  (21) 
{u'le': u'0.6', u'bei': u'27.62', u'sei': u'5.8', u'lle': u'7.76'}

>  <standard_flag>  (21) 
True

>  <molecule_chembl_id>  (21) 
CHEMBL333747

>  <target_organism>  (21) 
Homo sapiens

>  <standard_units>  (21) 
nM

>  <record_id>  (21) 
239349

>  <document_chembl_id>  (21) 
CHEMBL1125318

>  <bao_format>  (21) 
BAO_0000357

>  <data_validity_description>  (21) 
None

>  <activity_id>  (21) 
58680

>  <standard_type>  (21) 
IC50

>  <target_chembl_id>  (21) 
CHEMBL205

>  <data_validity_comment>  (21) 
None

>  <published_value>  (21) 
4.2E-9

>  <document_year>  (21) 
1992

>  <target_pref_name>  (21) 
Carbonic anhydrase II

>  <assay_chembl_id>  (21) 
CHEMBL656569

>  <standard_relation>  (21) 
=

>  <assay_description>  (21) 
Inhibition of human carbonic anhydrase II

>  <published_relation>  (21) 
=

>  <standard_value>  (21) 
4.2

>  <qudt_units>  (21) 
http://www.openphacts.org/units/Nanomolar

>  <target_tax_id>  (21) 
9606

>  <bao_label>  (21) 
single protein format

>  <published_units>  (21) 
M

>  <pchembl_value>  (21) 
8.38

>  <published_type>  (21) 
I50

>  <activity_comment>  (21) 
None

$$$$

     RDKit          

 19 20  0  0  0  0  0  0  0  0999 V2000
    0.0000    0.0000    0.0000 N   0  0  0  0  0  0  0  0  0  0  0  0
    0.0000    0.0000    0.0000 S   0  0  0  0  0  0  0  0  0  0  0  0
    0.0000    0.0000    0.0000 O   0  0  0  0  0  0  0  0  0  0  0  0
    0.0000    0.0000    0.0000 O   0  0  0  0  0  0  0  0  0  0  0  0
    0.0000    0.0000    0.0000 C   0  0  0  0  0  0  0  0  0  0  0  0
    0.0000    0.0000    0.0000 C   0  0  0  0  0  0  0  0  0  0  0  0
    0.0000    0.0000    0.0000 C   0  0  0  0  0  0  0  0  0  0  0  0
    0.0000    0.0000    0.0000 C   0  0  0  0  0  0  0  0  0  0  0  0
    0.0000    0.0000    0.0000 S   0  0  0  0  0  0  0  0  0  0  0  0
    0.0000    0.0000    0.0000 S   0  0  0  0  0  0  0  0  0  0  0  0
    0.0000    0.0000    0.0000 O   0  0  0  0  0  0  0  0  0  0  0  0
    0.0000    0.0000    0.0000 O   0  0  0  0  0  0  0  0  0  0  0  0
    0.0000    0.0000    0.0000 C   0  0  0  0  0  0  0  0  0  0  0  0
    0.0000    0.0000    0.0000 C   0  0  0  0  0  0  0  0  0  0  0  0
    0.0000    0.0000    0.0000 C   0  0  0  0  0  0  0  0  0  0  0  0
    0.0000    0.0000    0.0000 C   0  0  0  0  0  0  0  0  0  0  0  0
    0.0000    0.0000    0.0000 O   0  0  0  0  0  0  0  0  0  0  0  0
    0.0000    0.0000    0.0000 C   0  0  0  0  0  0  0  0  0  0  0  0
    0.0000    0.0000    0.0000 C   0  0  0  0  0  0  0  0  0  0  0  0
  1  2  1  0
  2  3  2  0
  2  4  2  0
  2  5  1  0
  5  6  2  0
  6  7  1  0
  7  8  2  0
  8  9  1  0
  7 10  1  0
 10 11  2  0
 10 12  2  0
 10 13  1  0
 13 14  2  0
 14 15  1  0
 15 16  2  0
 16 17  1  0
 16 18  1  0
 18 19  2  0
  9  5  1  0
 19 13  1  0
M  END
>  <pIC50>  (22) 
8.3

>  <ChEMBL_ID>  (22) 
CHEMBL341530

>  <document_journal>  (22) 
J. Med. Chem.

>  <bao_endpoint>  (22) 
BAO_0000190

>  <potential_duplicate>  (22) 
False

>  <uo_units>  (22) 
UO_0000065

>  <canonical_smiles>  (22) 
NS(=O)(=O)c1cc(cs1)S(=O)(=O)c2ccc(O)cc2

>  <parent_molecule_chembl_id>  (22) 
CHEMBL341530

>  <assay_type>  (22) 
B

>  <src_id>  (22) 
1

>  <ligand_efficiency>  (22) 
{u'le': u'0.6', u'bei': u'25.99', u'sei': u'5.2', u'lle': u'7.12'}

>  <standard_flag>  (22) 
True

>  <molecule_chembl_id>  (22) 
CHEMBL341530

>  <target_organism>  (22) 
Homo sapiens

>  <standard_units>  (22) 
nM

>  <record_id>  (22) 
239340

>  <document_chembl_id>  (22) 
CHEMBL1125318

>  <bao_format>  (22) 
BAO_0000357

>  <data_validity_description>  (22) 
None

>  <activity_id>  (22) 
60085

>  <standard_type>  (22) 
IC50

>  <target_chembl_id>  (22) 
CHEMBL205

>  <data_validity_comment>  (22) 
None

>  <published_value>  (22) 
5E-9

>  <document_year>  (22) 
1992

>  <target_pref_name>  (22) 
Carbonic anhydrase II

>  <assay_chembl_id>  (22) 
CHEMBL656569

>  <standard_relation>  (22) 
=

>  <assay_description>  (22) 
Inhibition of human carbonic anhydrase II

>  <published_relation>  (22) 
=

>  <standard_value>  (22) 
5

>  <qudt_units>  (22) 
http://www.openphacts.org/units/Nanomolar

>  <target_tax_id>  (22) 
9606

>  <bao_label>  (22) 
single protein format

>  <published_units>  (22) 
M

>  <pchembl_value>  (22) 
8.3

>  <published_type>  (22) 
I50

>  <activity_comment>  (22) 
None

$$$$

     RDKit          

 24 25  0  0  0  0  0  0  0  0999 V2000
    0.0000    0.0000    0.0000 C   0  0  0  0  0  0  0  0  0  0  0  0
    0.0000    0.0000    0.0000 C   0  0  0  0  0  0  0  0  0  0  0  0
    0.0000    0.0000    0.0000 C   0  0  0  0  0  0  0  0  0  0  0  0
    0.0000    0.0000    0.0000 C   0  0  0  0  0  0  0  0  0  0  0  0
    0.0000    0.0000    0.0000 N   0  0  0  0  0  0  0  0  0  0  0  0
    0.0000    0.0000    0.0000 C   0  0  0  0  0  0  0  0  0  0  0  0
    0.0000    0.0000    0.0000 C   0  0  0  0  0  0  0  0  0  0  0  0
    0.0000    0.0000    0.0000 C   0  0  0  0  0  0  0  0  0  0  0  0
    0.0000    0.0000    0.0000 C   0  0  0  0  0  0  0  0  0  0  0  0
    0.0000    0.0000    0.0000 C   0  0  0  0  0  0  0  0  0  0  0  0
    0.0000    0.0000    0.0000 C   0  0  0  0  0  0  0  0  0  0  0  0
    0.0000    0.0000    0.0000 C   0  0  0  0  0  0  0  0  0  0  0  0
    0.0000    0.0000    0.0000 S   0  0  0  0  0  0  0  0  0  0  0  0
    0.0000    0.0000    0.0000 O   0  0  0  0  0  0  0  0  0  0  0  0
    0.0000    0.0000    0.0000 O   0  0  0  0  0  0  0  0  0  0  0  0
    0.0000    0.0000    0.0000 C   0  0  0  0  0  0  0  0  0  0  0  0
    0.0000    0.0000    0.0000 C   0  0  0  0  0  0  0  0  0  0  0  0
    0.0000    0.0000    0.0000 S   0  0  0  0  0  0  0  0  0  0  0  0
    0.0000    0.0000    0.0000 C   0  0  0  0  0  0  0  0  0  0  0  0
    0.0000    0.0000    0.0000 C   0  0  0  0  0  0  0  0  0  0  0  0
    0.0000    0.0000    0.0000 S   0  0  0  0  0  0  0  0  0  0  0  0
    0.0000    0.0000    0.0000 O   0  0  0  0  0  0  0  0  0  0  0  0
    0.0000    0.0000    0.0000 O   0  0  0  0  0  0  0  0  0  0  0  0
    0.0000    0.0000    0.0000 N   0  0  0  0  0  0  0  0  0  0  0  0
  1  2  1  0
  2  3  1  0
  3  4  1  0
  4  5  1  0
  5  6  1  0
  6  7  1  0
  7  8  2  0
  8  9  1  0
  9 10  2  0
 10 11  1  0
 11 12  2  0
 10 13  1  0
 13 14  2  0
 13 15  2  0
 13 16  1  0
 16 17  2  0
 17 18  1  0
 18 19  1  0
 19 20  2  0
 19 21  1  0
 21 22  2  0
 21 23  2  0
 21 24  1  0
 12  7  1  0
 20 16  1  0
M  END
>  <pIC50>  (23) 
7.54

>  <ChEMBL_ID>  (23) 
CHEMBL539558

>  <document_journal>  (23) 
J. Med. Chem.

>  <bao_endpoint>  (23) 
BAO_0000190

>  <potential_duplicate>  (23) 
False

>  <uo_units>  (23) 
UO_0000065

>  <canonical_smiles>  (23) 
Cl.CCCCNCc1ccc(cc1)S(=O)(=O)c2csc(c2)S(=O)(=O)N

>  <parent_molecule_chembl_id>  (23) 
CHEMBL1189836

>  <assay_type>  (23) 
B

>  <src_id>  (23) 
1

>  <ligand_efficiency>  (23) 
{u'le': u'0.43', u'bei': u'19.4', u'sei': u'4.98', u'lle': u'5.25'}

>  <standard_flag>  (23) 
True

>  <molecule_chembl_id>  (23) 
CHEMBL539558

>  <target_organism>  (23) 
Homo sapiens

>  <standard_units>  (23) 
nM

>  <record_id>  (23) 
239335

>  <document_chembl_id>  (23) 
CHEMBL1125318

>  <bao_format>  (23) 
BAO_0000357

>  <data_validity_description>  (23) 
None

>  <activity_id>  (23) 
60093

>  <standard_type>  (23) 
IC50

>  <target_chembl_id>  (23) 
CHEMBL205

>  <data_validity_comment>  (23) 
None

>  <published_value>  (23) 
2.9E-8

>  <document_year>  (23) 
1992

>  <target_pref_name>  (23) 
Carbonic anhydrase II

>  <assay_chembl_id>  (23) 
CHEMBL656569

>  <standard_relation>  (23) 
=

>  <assay_description>  (23) 
Inhibition of human carbonic anhydrase II

>  <published_relation>  (23) 
=

>  <standard_value>  (23) 
29

>  <qudt_units>  (23) 
http://www.openphacts.org/units/Nanomolar

>  <target_tax_id>  (23) 
9606

>  <bao_label>  (23) 
single protein format

>  <published_units>  (23) 
M

>  <pchembl_value>  (23) 
7.54

>  <published_type>  (23) 
I50

>  <activity_comment>  (23) 
None

$$$$

     RDKit          

 25 26  0  0  0  0  0  0  0  0999 V2000
    0.0000    0.0000    0.0000 C   0  0  0  0  0  0  0  0  0  0  0  0
    0.0000    0.0000    0.0000 C   0  0  0  0  0  0  0  0  0  0  0  0
    0.0000    0.0000    0.0000 N   0  0  0  0  0  0  0  0  0  0  0  0
    0.0000    0.0000    0.0000 C   0  0  0  0  0  0  0  0  0  0  0  0
    0.0000    0.0000    0.0000 C   0  0  0  0  0  0  0  0  0  0  0  0
    0.0000    0.0000    0.0000 C   0  0  0  0  0  0  0  0  0  0  0  0
    0.0000    0.0000    0.0000 C   0  0  0  0  0  0  0  0  0  0  0  0
    0.0000    0.0000    0.0000 C   0  0  0  0  0  0  0  0  0  0  0  0
    0.0000    0.0000    0.0000 C   0  0  0  0  0  0  0  0  0  0  0  0
    0.0000    0.0000    0.0000 C   0  0  0  0  0  0  0  0  0  0  0  0
    0.0000    0.0000    0.0000 C   0  0  0  0  0  0  0  0  0  0  0  0
    0.0000    0.0000    0.0000 C   0  0  0  0  0  0  0  0  0  0  0  0
    0.0000    0.0000    0.0000 O   0  0  0  0  0  0  0  0  0  0  0  0
    0.0000    0.0000    0.0000 S   0  0  0  0  0  0  0  0  0  0  0  0
    0.0000    0.0000    0.0000 O   0  0  0  0  0  0  0  0  0  0  0  0
    0.0000    0.0000    0.0000 O   0  0  0  0  0  0  0  0  0  0  0  0
    0.0000    0.0000    0.0000 C   0  0  0  0  0  0  0  0  0  0  0  0
    0.0000    0.0000    0.0000 C   0  0  0  0  0  0  0  0  0  0  0  0
    0.0000    0.0000    0.0000 O   0  0  0  0  0  0  0  0  0  0  0  0
    0.0000    0.0000    0.0000 C   0  0  0  0  0  0  0  0  0  0  0  0
    0.0000    0.0000    0.0000 C   0  0  0  0  0  0  0  0  0  0  0  0
    0.0000    0.0000    0.0000 S   0  0  0  0  0  0  0  0  0  0  0  0
    0.0000    0.0000    0.0000 O   0  0  0  0  0  0  0  0  0  0  0  0
    0.0000    0.0000    0.0000 O   0  0  0  0  0  0  0  0  0  0  0  0
    0.0000    0.0000    0.0000 N   0  0  0  0  0  0  0  0  0  0  0  0
  1  2  1  0
  2  3  1  0
  3  4  1  0
  4  5  1  0
  3  6  1  0
  6  7  1  0
  7  8  2  0
  8  9  1  0
  9 10  2  0
 10 11  1  0
 11 12  2  0
 12 13  1  0
  9 14  1  0
 14 15  2  0
 14 16  2  0
 14 17  1  0
 17 18  2  0
 18 19  1  0
 19 20  1  0
 20 21  2  0
 20 22  1  0
 22 23  2  0
 22 24  2  0
 22 25  1  0
 12  7  1  0
 21 17  1  0
M  END
>  <pIC50>  (24) 
8.0

>  <ChEMBL_ID>  (24) 
CHEMBL538536

>  <document_journal>  (24) 
J. Med. Chem.

>  <bao_endpoint>  (24) 
BAO_0000190

>  <potential_duplicate>  (24) 
False

>  <uo_units>  (24) 
UO_0000065

>  <canonical_smiles>  (24) 
Cl.CCN(CC)Cc1cc(ccc1O)S(=O)(=O)c2coc(c2)S(=O)(=O)N

>  <parent_molecule_chembl_id>  (24) 
CHEMBL1189346

>  <assay_type>  (24) 
B

>  <src_id>  (24) 
1

>  <ligand_efficiency>  (24) 
{u'le': u'0.44', u'bei': u'20.59', u'sei': u'5.42', u'lle': u'6.6'}

>  <standard_flag>  (24) 
True

>  <molecule_chembl_id>  (24) 
CHEMBL538536

>  <target_organism>  (24) 
Homo sapiens

>  <standard_units>  (24) 
nM

>  <record_id>  (24) 
239346

>  <document_chembl_id>  (24) 
CHEMBL1125318

>  <bao_format>  (24) 
BAO_0000357

>  <data_validity_description>  (24) 
None

>  <activity_id>  (24) 
61419

>  <standard_type>  (24) 
IC50

>  <target_chembl_id>  (24) 
CHEMBL205

>  <data_validity_comment>  (24) 
None

>  <published_value>  (24) 
1E-8

>  <document_year>  (24) 
1992

>  <target_pref_name>  (24) 
Carbonic anhydrase II

>  <assay_chembl_id>  (24) 
CHEMBL656569

>  <standard_relation>  (24) 
=

>  <assay_description>  (24) 
Inhibition of human carbonic anhydrase II

>  <published_relation>  (24) 
=

>  <standard_value>  (24) 
10

>  <qudt_units>  (24) 
http://www.openphacts.org/units/Nanomolar

>  <target_tax_id>  (24) 
9606

>  <bao_label>  (24) 
single protein format

>  <published_units>  (24) 
M

>  <pchembl_value>  (24) 
8

>  <published_type>  (24) 
I50

>  <activity_comment>  (24) 
None

$$$$

     RDKit          

 24 26  0  0  0  0  0  0  0  0999 V2000
    0.0000    0.0000    0.0000 N   0  0  0  0  0  0  0  0  0  0  0  0
    0.0000    0.0000    0.0000 S   0  0  0  0  0  0  0  0  0  0  0  0
    0.0000    0.0000    0.0000 O   0  0  0  0  0  0  0  0  0  0  0  0
    0.0000    0.0000    0.0000 O   0  0  0  0  0  0  0  0  0  0  0  0
    0.0000    0.0000    0.0000 C   0  0  0  0  0  0  0  0  0  0  0  0
    0.0000    0.0000    0.0000 C   0  0  0  0  0  0  0  0  0  0  0  0
    0.0000    0.0000    0.0000 C   0  0  0  0  0  0  0  0  0  0  0  0
    0.0000    0.0000    0.0000 C   0  0  0  0  0  0  0  0  0  0  0  0
    0.0000    0.0000    0.0000 S   0  0  0  0  0  0  0  0  0  0  0  0
    0.0000    0.0000    0.0000 C   0  0  0  0  0  0  0  0  0  0  0  0
    0.0000    0.0000    0.0000 O   0  0  0  0  0  0  0  0  0  0  0  0
    0.0000    0.0000    0.0000 C   0  0  0  0  0  0  0  0  0  0  0  0
    0.0000    0.0000    0.0000 C   0  0  0  0  0  0  0  0  0  0  0  0
    0.0000    0.0000    0.0000 C   0  0  0  0  0  0  0  0  0  0  0  0
    0.0000    0.0000    0.0000 C   0  0  0  0  0  0  0  0  0  0  0  0
    0.0000    0.0000    0.0000 C   0  0  0  0  0  0  0  0  0  0  0  0
    0.0000    0.0000    0.0000 C   0  0  0  0  0  0  0  0  0  0  0  0
    0.0000    0.0000    0.0000 N   0  0  0  0  0  0  0  0  0  0  0  0
    0.0000    0.0000    0.0000 C   0  0  0  0  0  0  0  0  0  0  0  0
    0.0000    0.0000    0.0000 C   0  0  0  0  0  0  0  0  0  0  0  0
    0.0000    0.0000    0.0000 O   0  0  0  0  0  0  0  0  0  0  0  0
    0.0000    0.0000    0.0000 C   0  0  0  0  0  0  0  0  0  0  0  0
    0.0000    0.0000    0.0000 C   0  0  0  0  0  0  0  0  0  0  0  0
    0.0000    0.0000    0.0000 C   0  0  0  0  0  0  0  0  0  0  0  0
  1  2  1  0
  2  3  2  0
  2  4  2  0
  2  5  1  0
  5  6  2  0
  6  7  1  0
  7  8  2  0
  8  9  1  0
  7 10  1  0
 10 11  2  0
 10 12  1  0
 12 13  2  0
 13 14  1  0
 14 15  2  0
 15 16  1  0
 16 17  1  0
 17 18  1  0
 18 19  1  0
 19 20  1  0
 20 21  1  0
 21 22  1  0
 22 23  1  0
 16 24  2  0
  9  5  1  0
 24 12  1  0
 23 18  1  0
M  END
>  <pIC50>  (25) 
8.3

>  <ChEMBL_ID>  (25) 
CHEMBL555355

>  <document_journal>  (25) 
J. Med. Chem.

>  <bao_endpoint>  (25) 
BAO_0000190

>  <potential_duplicate>  (25) 
False

>  <uo_units>  (25) 
UO_0000065

>  <canonical_smiles>  (25) 
Cl.NS(=O)(=O)c1cc(cs1)C(=O)c2cccc(CN3CCOCC3)c2

>  <parent_molecule_chembl_id>  (25) 
CHEMBL1195791

>  <assay_type>  (25) 
B

>  <src_id>  (25) 
1

>  <ligand_efficiency>  (25) 
{u'le': u'0.47', u'bei': u'22.65', u'sei': u'6.57', u'lle': u'6.81'}

>  <standard_flag>  (25) 
True

>  <molecule_chembl_id>  (25) 
CHEMBL555355

>  <target_organism>  (25) 
Homo sapiens

>  <standard_units>  (25) 
nM

>  <record_id>  (25) 
239344

>  <document_chembl_id>  (25) 
CHEMBL1125318

>  <bao_format>  (25) 
BAO_0000357

>  <data_validity_description>  (25) 
None

>  <activity_id>  (25) 
62751

>  <standard_type>  (25) 
IC50

>  <target_chembl_id>  (25) 
CHEMBL205

>  <data_validity_comment>  (25) 
None

>  <published_value>  (25) 
5E-9

>  <document_year>  (25) 
1992

>  <target_pref_name>  (25) 
Carbonic anhydrase II

>  <assay_chembl_id>  (25) 
CHEMBL656569

>  <standard_relation>  (25) 
=

>  <assay_description>  (25) 
Inhibition of human carbonic anhydrase II

>  <published_relation>  (25) 
=

>  <standard_value>  (25) 
5

>  <qudt_units>  (25) 
http://www.openphacts.org/units/Nanomolar

>  <target_tax_id>  (25) 
9606

>  <bao_label>  (25) 
single protein format

>  <published_units>  (25) 
M

>  <pchembl_value>  (25) 
8.3

>  <published_type>  (25) 
I50

>  <activity_comment>  (25) 
None

$$$$

     RDKit          

 24 25  0  0  0  0  0  0  0  0999 V2000
    0.0000    0.0000    0.0000 C   0  0  0  0  0  0  0  0  0  0  0  0
    0.0000    0.0000    0.0000 C   0  0  0  0  0  0  0  0  0  0  0  0
    0.0000    0.0000    0.0000 C   0  0  0  0  0  0  0  0  0  0  0  0
    0.0000    0.0000    0.0000 C   0  0  0  0  0  0  0  0  0  0  0  0
    0.0000    0.0000    0.0000 N   0  0  0  0  0  0  0  0  0  0  0  0
    0.0000    0.0000    0.0000 C   0  0  0  0  0  0  0  0  0  0  0  0
    0.0000    0.0000    0.0000 C   0  0  0  0  0  0  0  0  0  0  0  0
    0.0000    0.0000    0.0000 C   0  0  0  0  0  0  0  0  0  0  0  0
    0.0000    0.0000    0.0000 C   0  0  0  0  0  0  0  0  0  0  0  0
    0.0000    0.0000    0.0000 C   0  0  0  0  0  0  0  0  0  0  0  0
    0.0000    0.0000    0.0000 C   0  0  0  0  0  0  0  0  0  0  0  0
    0.0000    0.0000    0.0000 C   0  0  0  0  0  0  0  0  0  0  0  0
    0.0000    0.0000    0.0000 S   0  0  0  0  0  0  0  0  0  0  0  0
    0.0000    0.0000    0.0000 O   0  0  0  0  0  0  0  0  0  0  0  0
    0.0000    0.0000    0.0000 O   0  0  0  0  0  0  0  0  0  0  0  0
    0.0000    0.0000    0.0000 C   0  0  0  0  0  0  0  0  0  0  0  0
    0.0000    0.0000    0.0000 C   0  0  0  0  0  0  0  0  0  0  0  0
    0.0000    0.0000    0.0000 S   0  0  0  0  0  0  0  0  0  0  0  0
    0.0000    0.0000    0.0000 C   0  0  0  0  0  0  0  0  0  0  0  0
    0.0000    0.0000    0.0000 C   0  0  0  0  0  0  0  0  0  0  0  0
    0.0000    0.0000    0.0000 S   0  0  0  0  0  0  0  0  0  0  0  0
    0.0000    0.0000    0.0000 O   0  0  0  0  0  0  0  0  0  0  0  0
    0.0000    0.0000    0.0000 O   0  0  0  0  0  0  0  0  0  0  0  0
    0.0000    0.0000    0.0000 N   0  0  0  0  0  0  0  0  0  0  0  0
  1  2  1  0
  2  3  1  0
  2  4  1  0
  4  5  1  0
  5  6  1  0
  6  7  1  0
  7  8  2  0
  8  9  1  0
  9 10  2  0
 10 11  1  0
 11 12  2  0
 10 13  1  0
 13 14  2  0
 13 15  2  0
 13 16  1  0
 16 17  2  0
 17 18  1  0
 18 19  1  0
 19 20  2  0
 19 21  1  0
 21 22  2  0
 21 23  2  0
 21 24  1  0
 12  7  1  0
 20 16  1  0
M  END
>  <pIC50>  (26) 
7.89

>  <ChEMBL_ID>  (26) 
CHEMBL543415

>  <document_journal>  (26) 
J. Med. Chem.

>  <bao_endpoint>  (26) 
BAO_0000190

>  <potential_duplicate>  (26) 
False

>  <uo_units>  (26) 
UO_0000065

>  <canonical_smiles>  (26) 
Cl.CC(C)CNCc1ccc(cc1)S(=O)(=O)c2csc(c2)S(=O)(=O)N

>  <parent_molecule_chembl_id>  (26) 
CHEMBL1192213

>  <assay_type>  (26) 
B

>  <src_id>  (26) 
1

>  <ligand_efficiency>  (26) 
{u'le': u'0.45', u'bei': u'20.3', u'sei': u'5.21', u'lle': u'5.74'}

>  <standard_flag>  (26) 
True

>  <molecule_chembl_id>  (26) 
CHEMBL543415

>  <target_organism>  (26) 
Homo sapiens

>  <standard_units>  (26) 
nM

>  <record_id>  (26) 
239337

>  <document_chembl_id>  (26) 
CHEMBL1125318

>  <bao_format>  (26) 
BAO_0000357

>  <data_validity_description>  (26) 
None

>  <activity_id>  (26) 
62759

>  <standard_type>  (26) 
IC50

>  <target_chembl_id>  (26) 
CHEMBL205

>  <data_validity_comment>  (26) 
None

>  <published_value>  (26) 
1.3E-8

>  <document_year>  (26) 
1992

>  <target_pref_name>  (26) 
Carbonic anhydrase II

>  <assay_chembl_id>  (26) 
CHEMBL656569

>  <standard_relation>  (26) 
=

>  <assay_description>  (26) 
Inhibition of human carbonic anhydrase II

>  <published_relation>  (26) 
=

>  <standard_value>  (26) 
13

>  <qudt_units>  (26) 
http://www.openphacts.org/units/Nanomolar

>  <target_tax_id>  (26) 
9606

>  <bao_label>  (26) 
single protein format

>  <published_units>  (26) 
M

>  <pchembl_value>  (26) 
7.89

>  <published_type>  (26) 
I50

>  <activity_comment>  (26) 
None

$$$$

     RDKit          

 24 25  0  0  0  0  0  0  0  0999 V2000
    0.0000    0.0000    0.0000 C   0  0  0  0  0  0  0  0  0  0  0  0
    0.0000    0.0000    0.0000 C   0  0  0  0  0  0  0  0  0  0  0  0
    0.0000    0.0000    0.0000 C   0  0  0  0  0  0  0  0  0  0  0  0
    0.0000    0.0000    0.0000 C   0  0  0  0  0  0  0  0  0  0  0  0
    0.0000    0.0000    0.0000 N   0  0  0  0  0  0  0  0  0  0  0  0
    0.0000    0.0000    0.0000 C   0  0  0  0  0  0  0  0  0  0  0  0
    0.0000    0.0000    0.0000 C   0  0  0  0  0  0  0  0  0  0  0  0
    0.0000    0.0000    0.0000 C   0  0  0  0  0  0  0  0  0  0  0  0
    0.0000    0.0000    0.0000 C   0  0  0  0  0  0  0  0  0  0  0  0
    0.0000    0.0000    0.0000 C   0  0  0  0  0  0  0  0  0  0  0  0
    0.0000    0.0000    0.0000 C   0  0  0  0  0  0  0  0  0  0  0  0
    0.0000    0.0000    0.0000 C   0  0  0  0  0  0  0  0  0  0  0  0
    0.0000    0.0000    0.0000 S   0  0  0  0  0  0  0  0  0  0  0  0
    0.0000    0.0000    0.0000 O   0  0  0  0  0  0  0  0  0  0  0  0
    0.0000    0.0000    0.0000 O   0  0  0  0  0  0  0  0  0  0  0  0
    0.0000    0.0000    0.0000 C   0  0  0  0  0  0  0  0  0  0  0  0
    0.0000    0.0000    0.0000 C   0  0  0  0  0  0  0  0  0  0  0  0
    0.0000    0.0000    0.0000 S   0  0  0  0  0  0  0  0  0  0  0  0
    0.0000    0.0000    0.0000 C   0  0  0  0  0  0  0  0  0  0  0  0
    0.0000    0.0000    0.0000 C   0  0  0  0  0  0  0  0  0  0  0  0
    0.0000    0.0000    0.0000 S   0  0  0  0  0  0  0  0  0  0  0  0
    0.0000    0.0000    0.0000 O   0  0  0  0  0  0  0  0  0  0  0  0
    0.0000    0.0000    0.0000 O   0  0  0  0  0  0  0  0  0  0  0  0
    0.0000    0.0000    0.0000 N   0  0  0  0  0  0  0  0  0  0  0  0
  1  2  1  0
  2  3  1  0
  2  4  1  0
  2  5  1  0
  5  6  1  0
  6  7  1  0
  7  8  2  0
  8  9  1  0
  9 10  2  0
 10 11  1  0
 11 12  2  0
 10 13  1  0
 13 14  2  0
 13 15  2  0
 13 16  1  0
 16 17  2  0
 17 18  1  0
 18 19  1  0
 19 20  2  0
 19 21  1  0
 21 22  2  0
 21 23  2  0
 21 24  1  0
 12  7  1  0
 20 16  1  0
M  END
>  <pIC50>  (27) 
7.44

>  <ChEMBL_ID>  (27) 
CHEMBL541597

>  <document_journal>  (27) 
J. Med. Chem.

>  <bao_endpoint>  (27) 
BAO_0000190

>  <potential_duplicate>  (27) 
False

>  <uo_units>  (27) 
UO_0000065

>  <canonical_smiles>  (27) 
Cl.CC(C)(C)NCc1ccc(cc1)S(=O)(=O)c2csc(c2)S(=O)(=O)N

>  <parent_molecule_chembl_id>  (27) 
CHEMBL1190795

>  <assay_type>  (27) 
B

>  <src_id>  (27) 
1

>  <ligand_efficiency>  (27) 
{u'le': u'0.42', u'bei': u'19.16', u'sei': u'4.92', u'lle': u'5.55'}

>  <standard_flag>  (27) 
True

>  <molecule_chembl_id>  (27) 
CHEMBL541597

>  <target_organism>  (27) 
Homo sapiens

>  <standard_units>  (27) 
nM

>  <record_id>  (27) 
239328

>  <document_chembl_id>  (27) 
CHEMBL1125318

>  <bao_format>  (27) 
BAO_0000357

>  <data_validity_description>  (27) 
None

>  <activity_id>  (27) 
62768

>  <standard_type>  (27) 
IC50

>  <target_chembl_id>  (27) 
CHEMBL205

>  <data_validity_comment>  (27) 
None

>  <published_value>  (27) 
3.6E-8

>  <document_year>  (27) 
1992

>  <target_pref_name>  (27) 
Carbonic anhydrase II

>  <assay_chembl_id>  (27) 
CHEMBL656569

>  <standard_relation>  (27) 
=

>  <assay_description>  (27) 
Inhibition of human carbonic anhydrase II

>  <published_relation>  (27) 
=

>  <standard_value>  (27) 
36

>  <qudt_units>  (27) 
http://www.openphacts.org/units/Nanomolar

>  <target_tax_id>  (27) 
9606

>  <bao_label>  (27) 
single protein format

>  <published_units>  (27) 
M

>  <pchembl_value>  (27) 
7.44

>  <published_type>  (27) 
I50

>  <activity_comment>  (27) 
None

$$$$

     RDKit          

 24 26  0  0  0  0  0  0  0  0999 V2000
    0.0000    0.0000    0.0000 N   0  0  0  0  0  0  0  0  0  0  0  0
    0.0000    0.0000    0.0000 S   0  0  0  0  0  0  0  0  0  0  0  0
    0.0000    0.0000    0.0000 O   0  0  0  0  0  0  0  0  0  0  0  0
    0.0000    0.0000    0.0000 O   0  0  0  0  0  0  0  0  0  0  0  0
    0.0000    0.0000    0.0000 C   0  0  0  0  0  0  0  0  0  0  0  0
    0.0000    0.0000    0.0000 C   0  0  0  0  0  0  0  0  0  0  0  0
    0.0000    0.0000    0.0000 C   0  0  0  0  0  0  0  0  0  0  0  0
    0.0000    0.0000    0.0000 C   0  0  0  0  0  0  0  0  0  0  0  0
    0.0000    0.0000    0.0000 S   0  0  0  0  0  0  0  0  0  0  0  0
    0.0000    0.0000    0.0000 C   0  0  0  0  0  0  0  0  0  0  0  0
    0.0000    0.0000    0.0000 O   0  0  0  0  0  0  0  0  0  0  0  0
    0.0000    0.0000    0.0000 C   0  0  0  0  0  0  0  0  0  0  0  0
    0.0000    0.0000    0.0000 C   0  0  0  0  0  0  0  0  0  0  0  0
    0.0000    0.0000    0.0000 C   0  0  0  0  0  0  0  0  0  0  0  0
    0.0000    0.0000    0.0000 C   0  0  0  0  0  0  0  0  0  0  0  0
    0.0000    0.0000    0.0000 C   0  0  0  0  0  0  0  0  0  0  0  0
    0.0000    0.0000    0.0000 N   0  0  0  0  0  0  0  0  0  0  0  0
    0.0000    0.0000    0.0000 C   0  0  0  0  0  0  0  0  0  0  0  0
    0.0000    0.0000    0.0000 C   0  0  0  0  0  0  0  0  0  0  0  0
    0.0000    0.0000    0.0000 O   0  0  0  0  0  0  0  0  0  0  0  0
    0.0000    0.0000    0.0000 C   0  0  0  0  0  0  0  0  0  0  0  0
    0.0000    0.0000    0.0000 C   0  0  0  0  0  0  0  0  0  0  0  0
    0.0000    0.0000    0.0000 C   0  0  0  0  0  0  0  0  0  0  0  0
    0.0000    0.0000    0.0000 C   0  0  0  0  0  0  0  0  0  0  0  0
  1  2  1  0
  2  3  2  0
  2  4  2  0
  2  5  1  0
  5  6  2  0
  6  7  1  0
  7  8  2  0
  8  9  1  0
  7 10  1  0
 10 11  2  0
 10 12  1  0
 12 13  2  0
 13 14  1  0
 14 15  2  0
 15 16  1  0
 16 17  1  0
 17 18  1  0
 18 19  1  0
 19 20  1  0
 20 21  1  0
 21 22  1  0
 15 23  1  0
 23 24  2  0
  9  5  1  0
 24 12  1  0
 22 17  1  0
M  END
>  <pIC50>  (28) 
8.43

>  <ChEMBL_ID>  (28) 
CHEMBL545756

>  <document_journal>  (28) 
J. Med. Chem.

>  <bao_endpoint>  (28) 
BAO_0000190

>  <potential_duplicate>  (28) 
False

>  <uo_units>  (28) 
UO_0000065

>  <canonical_smiles>  (28) 
Cl.NS(=O)(=O)c1cc(cs1)C(=O)c2ccc(CN3CCOCC3)cc2

>  <parent_molecule_chembl_id>  (28) 
CHEMBL1194224

>  <assay_type>  (28) 
B

>  <src_id>  (28) 
1

>  <ligand_efficiency>  (28) 
{u'le': u'0.48', u'bei': u'23.01', u'sei': u'6.68', u'lle': u'6.94'}

>  <standard_flag>  (28) 
True

>  <molecule_chembl_id>  (28) 
CHEMBL545756

>  <target_organism>  (28) 
Homo sapiens

>  <standard_units>  (28) 
nM

>  <record_id>  (28) 
239316

>  <document_chembl_id>  (28) 
CHEMBL1125318

>  <bao_format>  (28) 
BAO_0000357

>  <data_validity_description>  (28) 
None

>  <activity_id>  (28) 
64104

>  <standard_type>  (28) 
IC50

>  <target_chembl_id>  (28) 
CHEMBL205

>  <data_validity_comment>  (28) 
None

>  <published_value>  (28) 
3.7E-9

>  <document_year>  (28) 
1992

>  <target_pref_name>  (28) 
Carbonic anhydrase II

>  <assay_chembl_id>  (28) 
CHEMBL656569

>  <standard_relation>  (28) 
=

>  <assay_description>  (28) 
Inhibition of human carbonic anhydrase II

>  <published_relation>  (28) 
=

>  <standard_value>  (28) 
3.7

>  <qudt_units>  (28) 
http://www.openphacts.org/units/Nanomolar

>  <target_tax_id>  (28) 
9606

>  <bao_label>  (28) 
single protein format

>  <published_units>  (28) 
M

>  <pchembl_value>  (28) 
8.43

>  <published_type>  (28) 
I50

>  <activity_comment>  (28) 
None

$$$$

     RDKit          

 24 25  0  0  0  0  0  0  0  0999 V2000
    0.0000    0.0000    0.0000 C   0  0  0  0  0  0  0  0  0  0  0  0
    0.0000    0.0000    0.0000 C   0  0  0  0  0  0  0  0  0  0  0  0
    0.0000    0.0000    0.0000 C   0  0  0  0  0  0  0  0  0  0  0  0
    0.0000    0.0000    0.0000 C   0  0  0  0  0  0  0  0  0  0  0  0
    0.0000    0.0000    0.0000 N   0  0  0  0  0  0  0  0  0  0  0  0
    0.0000    0.0000    0.0000 C   0  0  0  0  0  0  0  0  0  0  0  0
    0.0000    0.0000    0.0000 C   0  0  0  0  0  0  0  0  0  0  0  0
    0.0000    0.0000    0.0000 C   0  0  0  0  0  0  0  0  0  0  0  0
    0.0000    0.0000    0.0000 C   0  0  0  0  0  0  0  0  0  0  0  0
    0.0000    0.0000    0.0000 C   0  0  0  0  0  0  0  0  0  0  0  0
    0.0000    0.0000    0.0000 C   0  0  0  0  0  0  0  0  0  0  0  0
    0.0000    0.0000    0.0000 C   0  0  0  0  0  0  0  0  0  0  0  0
    0.0000    0.0000    0.0000 S   0  0  0  0  0  0  0  0  0  0  0  0
    0.0000    0.0000    0.0000 O   0  0  0  0  0  0  0  0  0  0  0  0
    0.0000    0.0000    0.0000 O   0  0  0  0  0  0  0  0  0  0  0  0
    0.0000    0.0000    0.0000 C   0  0  0  0  0  0  0  0  0  0  0  0
    0.0000    0.0000    0.0000 C   0  0  0  0  0  0  0  0  0  0  0  0
    0.0000    0.0000    0.0000 S   0  0  0  0  0  0  0  0  0  0  0  0
    0.0000    0.0000    0.0000 C   0  0  0  0  0  0  0  0  0  0  0  0
    0.0000    0.0000    0.0000 C   0  0  0  0  0  0  0  0  0  0  0  0
    0.0000    0.0000    0.0000 S   0  0  0  0  0  0  0  0  0  0  0  0
    0.0000    0.0000    0.0000 O   0  0  0  0  0  0  0  0  0  0  0  0
    0.0000    0.0000    0.0000 O   0  0  0  0  0  0  0  0  0  0  0  0
    0.0000    0.0000    0.0000 N   0  0  0  0  0  0  0  0  0  0  0  0
  1  2  1  0
  2  3  1  0
  2  4  1  0
  4  5  1  0
  5  6  1  0
  6  7  1  0
  7  8  2  0
  8  9  1  0
  9 10  2  0
 10 11  1  0
 11 12  2  0
 11 13  1  0
 13 14  2  0
 13 15  2  0
 13 16  1  0
 16 17  2  0
 17 18  1  0
 18 19  1  0
 19 20  2  0
 19 21  1  0
 21 22  2  0
 21 23  2  0
 21 24  1  0
 12  7  1  0
 20 16  1  0
M  END
>  <pIC50>  (29) 
7.92

>  <ChEMBL_ID>  (29) 
CHEMBL541856

>  <document_journal>  (29) 
J. Med. Chem.

>  <bao_endpoint>  (29) 
BAO_0000190

>  <potential_duplicate>  (29) 
False

>  <uo_units>  (29) 
UO_0000065

>  <canonical_smiles>  (29) 
Cl.CC(C)CNCc1cccc(c1)S(=O)(=O)c2csc(c2)S(=O)(=O)N

>  <parent_molecule_chembl_id>  (29) 
CHEMBL1190921

>  <assay_type>  (29) 
B

>  <src_id>  (29) 
1

>  <ligand_efficiency>  (29) 
{u'le': u'0.45', u'bei': u'20.39', u'sei': u'5.23', u'lle': u'5.77'}

>  <standard_flag>  (29) 
True

>  <molecule_chembl_id>  (29) 
CHEMBL541856

>  <target_organism>  (29) 
Homo sapiens

>  <standard_units>  (29) 
nM

>  <record_id>  (29) 
239332

>  <document_chembl_id>  (29) 
CHEMBL1125318

>  <bao_format>  (29) 
BAO_0000357

>  <data_validity_description>  (29) 
None

>  <activity_id>  (29) 
64112

>  <standard_type>  (29) 
IC50

>  <target_chembl_id>  (29) 
CHEMBL205

>  <data_validity_comment>  (29) 
None

>  <published_value>  (29) 
1.2E-8

>  <document_year>  (29) 
1992

>  <target_pref_name>  (29) 
Carbonic anhydrase II

>  <assay_chembl_id>  (29) 
CHEMBL656569

>  <standard_relation>  (29) 
=

>  <assay_description>  (29) 
Inhibition of human carbonic anhydrase II

>  <published_relation>  (29) 
=

>  <standard_value>  (29) 
12

>  <qudt_units>  (29) 
http://www.openphacts.org/units/Nanomolar

>  <target_tax_id>  (29) 
9606

>  <bao_label>  (29) 
single protein format

>  <published_units>  (29) 
M

>  <pchembl_value>  (29) 
7.92

>  <published_type>  (29) 
I50

>  <activity_comment>  (29) 
None

$$$$

     RDKit          

 26 28  0  0  0  0  0  0  0  0999 V2000
    0.0000    0.0000    0.0000 N   0  0  0  0  0  0  0  0  0  0  0  0
    0.0000    0.0000    0.0000 S   0  0  0  0  0  0  0  0  0  0  0  0
    0.0000    0.0000    0.0000 O   0  0  0  0  0  0  0  0  0  0  0  0
    0.0000    0.0000    0.0000 O   0  0  0  0  0  0  0  0  0  0  0  0
    0.0000    0.0000    0.0000 C   0  0  0  0  0  0  0  0  0  0  0  0
    0.0000    0.0000    0.0000 C   0  0  0  0  0  0  0  0  0  0  0  0
    0.0000    0.0000    0.0000 C   0  0  0  0  0  0  0  0  0  0  0  0
    0.0000    0.0000    0.0000 C   0  0  0  0  0  0  0  0  0  0  0  0
    0.0000    0.0000    0.0000 S   0  0  0  0  0  0  0  0  0  0  0  0
    0.0000    0.0000    0.0000 C   0  0  0  0  0  0  0  0  0  0  0  0
    0.0000    0.0000    0.0000 O   0  0  0  0  0  0  0  0  0  0  0  0
    0.0000    0.0000    0.0000 C   0  0  0  0  0  0  0  0  0  0  0  0
    0.0000    0.0000    0.0000 C   0  0  0  0  0  0  0  0  0  0  0  0
    0.0000    0.0000    0.0000 C   0  0  0  0  0  0  0  0  0  0  0  0
    0.0000    0.0000    0.0000 C   0  0  0  0  0  0  0  0  0  0  0  0
    0.0000    0.0000    0.0000 C   0  0  0  0  0  0  0  0  0  0  0  0
    0.0000    0.0000    0.0000 N   0  0  0  0  0  0  0  0  0  0  0  0
    0.0000    0.0000    0.0000 C   0  0  0  0  0  0  0  0  0  0  0  0
    0.0000    0.0000    0.0000 C   0  0  0  0  0  0  0  0  0  0  0  0
    0.0000    0.0000    0.0000 C   0  0  0  0  0  0  0  0  0  0  0  0
    0.0000    0.0000    0.0000 C   0  0  0  0  0  0  0  0  0  0  0  0
    0.0000    0.0000    0.0000 C   0  0  0  0  0  0  0  0  0  0  0  0
    0.0000    0.0000    0.0000 C   0  0  0  0  0  0  0  0  0  0  0  0
    0.0000    0.0000    0.0000 C   0  0  0  0  0  0  0  0  0  0  0  0
    0.0000    0.0000    0.0000 C   0  0  0  0  0  0  0  0  0  0  0  0
    0.0000    0.0000    0.0000 C   0  0  0  0  0  0  0  0  0  0  0  0
  1  2  1  0
  2  3  2  0
  2  4  2  0
  2  5  1  0
  5  6  2  0
  6  7  1  0
  7  8  2  0
  8  9  1  0
  7 10  1  0
 10 11  2  0
 10 12  1  0
 12 13  2  0
 13 14  1  0
 14 15  2  0
 15 16  1  0
 16 17  1  0
 17 18  1  0
 18 19  1  0
 19 20  2  0
 20 21  1  0
 21 22  2  0
 22 23  1  0
 23 24  2  0
 15 25  1  0
 25 26  2  0
  9  5  1  0
 26 12  1  0
 24 19  1  0
M  END
>  <pIC50>  (30) 
8.62

>  <ChEMBL_ID>  (30) 
CHEMBL540835

>  <document_journal>  (30) 
J. Med. Chem.

>  <bao_endpoint>  (30) 
BAO_0000190

>  <potential_duplicate>  (30) 
False

>  <uo_units>  (30) 
UO_0000065

>  <canonical_smiles>  (30) 
Cl.NS(=O)(=O)c1cc(cs1)C(=O)c2ccc(CNCc3ccccc3)cc2

>  <parent_molecule_chembl_id>  (30) 
CHEMBL1190426

>  <assay_type>  (30) 
B

>  <src_id>  (30) 
1

>  <ligand_efficiency>  (30) 
{u'le': u'0.45', u'bei': u'22.3', u'sei': u'6.85', u'lle': u'5.77'}

>  <standard_flag>  (30) 
True

>  <molecule_chembl_id>  (30) 
CHEMBL540835

>  <target_organism>  (30) 
Homo sapiens

>  <standard_units>  (30) 
nM

>  <record_id>  (30) 
239318

>  <document_chembl_id>  (30) 
CHEMBL1125318

>  <bao_format>  (30) 
BAO_0000357

>  <data_validity_description>  (30) 
None

>  <activity_id>  (30) 
65322

>  <standard_type>  (30) 
IC50

>  <target_chembl_id>  (30) 
CHEMBL205

>  <data_validity_comment>  (30) 
None

>  <published_value>  (30) 
2.4E-9

>  <document_year>  (30) 
1992

>  <target_pref_name>  (30) 
Carbonic anhydrase II

>  <assay_chembl_id>  (30) 
CHEMBL656569

>  <standard_relation>  (30) 
=

>  <assay_description>  (30) 
Inhibition of human carbonic anhydrase II

>  <published_relation>  (30) 
=

>  <standard_value>  (30) 
2.4

>  <qudt_units>  (30) 
http://www.openphacts.org/units/Nanomolar

>  <target_tax_id>  (30) 
9606

>  <bao_label>  (30) 
single protein format

>  <published_units>  (30) 
M

>  <pchembl_value>  (30) 
8.62

>  <published_type>  (30) 
I50

>  <activity_comment>  (30) 
None

$$$$

     RDKit          

 24 25  0  0  0  0  0  0  0  0999 V2000
    0.0000    0.0000    0.0000 C   0  0  0  0  0  0  0  0  0  0  0  0
    0.0000    0.0000    0.0000 C   0  0  0  0  0  0  0  0  0  0  0  0
    0.0000    0.0000    0.0000 N   0  0  0  0  0  0  0  0  0  0  0  0
    0.0000    0.0000    0.0000 C   0  0  0  0  0  0  0  0  0  0  0  0
    0.0000    0.0000    0.0000 C   0  0  0  0  0  0  0  0  0  0  0  0
    0.0000    0.0000    0.0000 C   0  0  0  0  0  0  0  0  0  0  0  0
    0.0000    0.0000    0.0000 C   0  0  0  0  0  0  0  0  0  0  0  0
    0.0000    0.0000    0.0000 C   0  0  0  0  0  0  0  0  0  0  0  0
    0.0000    0.0000    0.0000 C   0  0  0  0  0  0  0  0  0  0  0  0
    0.0000    0.0000    0.0000 C   0  0  0  0  0  0  0  0  0  0  0  0
    0.0000    0.0000    0.0000 C   0  0  0  0  0  0  0  0  0  0  0  0
    0.0000    0.0000    0.0000 C   0  0  0  0  0  0  0  0  0  0  0  0
    0.0000    0.0000    0.0000 O   0  0  0  0  0  0  0  0  0  0  0  0
    0.0000    0.0000    0.0000 C   0  0  0  0  0  0  0  0  0  0  0  0
    0.0000    0.0000    0.0000 O   0  0  0  0  0  0  0  0  0  0  0  0
    0.0000    0.0000    0.0000 C   0  0  0  0  0  0  0  0  0  0  0  0
    0.0000    0.0000    0.0000 C   0  0  0  0  0  0  0  0  0  0  0  0
    0.0000    0.0000    0.0000 S   0  0  0  0  0  0  0  0  0  0  0  0
    0.0000    0.0000    0.0000 C   0  0  0  0  0  0  0  0  0  0  0  0
    0.0000    0.0000    0.0000 C   0  0  0  0  0  0  0  0  0  0  0  0
    0.0000    0.0000    0.0000 S   0  0  0  0  0  0  0  0  0  0  0  0
    0.0000    0.0000    0.0000 O   0  0  0  0  0  0  0  0  0  0  0  0
    0.0000    0.0000    0.0000 O   0  0  0  0  0  0  0  0  0  0  0  0
    0.0000    0.0000    0.0000 N   0  0  0  0  0  0  0  0  0  0  0  0
  1  2  1  0
  2  3  1  0
  3  4  1  0
  4  5  1  0
  3  6  1  0
  6  7  1  0
  7  8  2  0
  8  9  1  0
  9 10  2  0
 10 11  1  0
 11 12  2  0
 12 13  1  0
  9 14  1  0
 14 15  2  0
 14 16  1  0
 16 17  2  0
 17 18  1  0
 18 19  1  0
 19 20  2  0
 19 21  1  0
 21 22  2  0
 21 23  2  0
 21 24  1  0
 12  7  1  0
 20 16  1  0
M  END
>  <pIC50>  (31) 
8.16

>  <ChEMBL_ID>  (31) 
CHEMBL542219

>  <document_journal>  (31) 
J. Med. Chem.

>  <bao_endpoint>  (31) 
BAO_0000190

>  <potential_duplicate>  (31) 
False

>  <uo_units>  (31) 
UO_0000065

>  <canonical_smiles>  (31) 
Cl.CCN(CC)Cc1cc(ccc1O)C(=O)c2csc(c2)S(=O)(=O)N

>  <parent_molecule_chembl_id>  (31) 
CHEMBL1191162

>  <assay_type>  (31) 
B

>  <src_id>  (31) 
1

>  <ligand_efficiency>  (31) 
{u'le': u'0.46', u'bei': u'22.13', u'sei': u'5.94', u'lle': u'5.89'}

>  <standard_flag>  (31) 
True

>  <molecule_chembl_id>  (31) 
CHEMBL542219

>  <target_organism>  (31) 
Homo sapiens

>  <standard_units>  (31) 
nM

>  <record_id>  (31) 
239314

>  <document_chembl_id>  (31) 
CHEMBL1125318

>  <bao_format>  (31) 
BAO_0000357

>  <data_validity_description>  (31) 
None

>  <activity_id>  (31) 
65330

>  <standard_type>  (31) 
IC50

>  <target_chembl_id>  (31) 
CHEMBL205

>  <data_validity_comment>  (31) 
None

>  <published_value>  (31) 
7E-9

>  <document_year>  (31) 
1992

>  <target_pref_name>  (31) 
Carbonic anhydrase II

>  <assay_chembl_id>  (31) 
CHEMBL656569

>  <standard_relation>  (31) 
=

>  <assay_description>  (31) 
Inhibition of human carbonic anhydrase II

>  <published_relation>  (31) 
=

>  <standard_value>  (31) 
7

>  <qudt_units>  (31) 
http://www.openphacts.org/units/Nanomolar

>  <target_tax_id>  (31) 
9606

>  <bao_label>  (31) 
single protein format

>  <published_units>  (31) 
M

>  <pchembl_value>  (31) 
8.16

>  <published_type>  (31) 
I50

>  <activity_comment>  (31) 
None

$$$$

     RDKit          

 23 24  0  0  0  0  0  0  0  0999 V2000
    0.0000    0.0000    0.0000 C   0  0  0  0  0  0  0  0  0  0  0  0
    0.0000    0.0000    0.0000 N   0  0  0  0  0  0  0  0  0  0  0  0
    0.0000    0.0000    0.0000 C   0  0  0  0  0  0  0  0  0  0  0  0
    0.0000    0.0000    0.0000 C   0  0  0  0  0  0  0  0  0  0  0  0
    0.0000    0.0000    0.0000 C   0  0  0  0  0  0  0  0  0  0  0  0
    0.0000    0.0000    0.0000 C   0  0  0  0  0  0  0  0  0  0  0  0
    0.0000    0.0000    0.0000 C   0  0  0  0  0  0  0  0  0  0  0  0
    0.0000    0.0000    0.0000 C   0  0  0  0  0  0  0  0  0  0  0  0
    0.0000    0.0000    0.0000 C   0  0  0  0  0  0  0  0  0  0  0  0
    0.0000    0.0000    0.0000 C   0  0  0  0  0  0  0  0  0  0  0  0
    0.0000    0.0000    0.0000 O   0  0  0  0  0  0  0  0  0  0  0  0
    0.0000    0.0000    0.0000 S   0  0  0  0  0  0  0  0  0  0  0  0
    0.0000    0.0000    0.0000 O   0  0  0  0  0  0  0  0  0  0  0  0
    0.0000    0.0000    0.0000 O   0  0  0  0  0  0  0  0  0  0  0  0
    0.0000    0.0000    0.0000 C   0  0  0  0  0  0  0  0  0  0  0  0
    0.0000    0.0000    0.0000 C   0  0  0  0  0  0  0  0  0  0  0  0
    0.0000    0.0000    0.0000 S   0  0  0  0  0  0  0  0  0  0  0  0
    0.0000    0.0000    0.0000 C   0  0  0  0  0  0  0  0  0  0  0  0
    0.0000    0.0000    0.0000 C   0  0  0  0  0  0  0  0  0  0  0  0
    0.0000    0.0000    0.0000 S   0  0  0  0  0  0  0  0  0  0  0  0
    0.0000    0.0000    0.0000 O   0  0  0  0  0  0  0  0  0  0  0  0
    0.0000    0.0000    0.0000 O   0  0  0  0  0  0  0  0  0  0  0  0
    0.0000    0.0000    0.0000 N   0  0  0  0  0  0  0  0  0  0  0  0
  1  2  1  0
  2  3  1  0
  2  4  1  0
  4  5  1  0
  5  6  2  0
  6  7  1  0
  7  8  2  0
  8  9  1  0
  9 10  2  0
 10 11  1  0
  7 12  1  0
 12 13  2  0
 12 14  2  0
 12 15  1  0
 15 16  2  0
 16 17  1  0
 17 18  1  0
 18 19  2  0
 18 20  1  0
 20 21  2  0
 20 22  2  0
 20 23  1  0
 10  5  1  0
 19 15  1  0
M  END
>  <pIC50>  (32) 
8.05

>  <ChEMBL_ID>  (32) 
CHEMBL541080

>  <document_journal>  (32) 
J. Med. Chem.

>  <bao_endpoint>  (32) 
BAO_0000190

>  <potential_duplicate>  (32) 
False

>  <uo_units>  (32) 
UO_0000065

>  <canonical_smiles>  (32) 
Cl.CN(C)Cc1cc(ccc1O)S(=O)(=O)c2csc(c2)S(=O)(=O)N

>  <parent_molecule_chembl_id>  (32) 
CHEMBL1190541

>  <assay_type>  (32) 
B

>  <src_id>  (32) 
1

>  <ligand_efficiency>  (32) 
{u'le': u'0.48', u'bei': u'21.37', u'sei': u'4.94', u'lle': u'6.79'}

>  <standard_flag>  (32) 
True

>  <molecule_chembl_id>  (32) 
CHEMBL541080

>  <target_organism>  (32) 
Homo sapiens

>  <standard_units>  (32) 
nM

>  <record_id>  (32) 
239323

>  <document_chembl_id>  (32) 
CHEMBL1125318

>  <bao_format>  (32) 
BAO_0000357

>  <data_validity_description>  (32) 
None

>  <activity_id>  (32) 
65340

>  <standard_type>  (32) 
IC50

>  <target_chembl_id>  (32) 
CHEMBL205

>  <data_validity_comment>  (32) 
None

>  <published_value>  (32) 
9E-9

>  <document_year>  (32) 
1992

>  <target_pref_name>  (32) 
Carbonic anhydrase II

>  <assay_chembl_id>  (32) 
CHEMBL656569

>  <standard_relation>  (32) 
=

>  <assay_description>  (32) 
Inhibition of human carbonic anhydrase II

>  <published_relation>  (32) 
=

>  <standard_value>  (32) 
9

>  <qudt_units>  (32) 
http://www.openphacts.org/units/Nanomolar

>  <target_tax_id>  (32) 
9606

>  <bao_label>  (32) 
single protein format

>  <published_units>  (32) 
M

>  <pchembl_value>  (32) 
8.05

>  <published_type>  (32) 
I50

>  <activity_comment>  (32) 
None

$$$$

     RDKit          

 20 21  0  0  0  0  0  0  0  0999 V2000
    0.0000    0.0000    0.0000 C   0  0  0  0  0  0  0  0  0  0  0  0
    0.0000    0.0000    0.0000 O   0  0  0  0  0  0  0  0  0  0  0  0
    0.0000    0.0000    0.0000 C   0  0  0  0  0  0  0  0  0  0  0  0
    0.0000    0.0000    0.0000 C   0  0  0  0  0  0  0  0  0  0  0  0
    0.0000    0.0000    0.0000 C   0  0  0  0  0  0  0  0  0  0  0  0
    0.0000    0.0000    0.0000 C   0  0  0  0  0  0  0  0  0  0  0  0
    0.0000    0.0000    0.0000 C   0  0  0  0  0  0  0  0  0  0  0  0
    0.0000    0.0000    0.0000 C   0  0  0  0  0  0  0  0  0  0  0  0
    0.0000    0.0000    0.0000 S   0  0  0  0  0  0  0  0  0  0  0  0
    0.0000    0.0000    0.0000 O   0  0  0  0  0  0  0  0  0  0  0  0
    0.0000    0.0000    0.0000 O   0  0  0  0  0  0  0  0  0  0  0  0
    0.0000    0.0000    0.0000 C   0  0  0  0  0  0  0  0  0  0  0  0
    0.0000    0.0000    0.0000 C   0  0  0  0  0  0  0  0  0  0  0  0
    0.0000    0.0000    0.0000 O   0  0  0  0  0  0  0  0  0  0  0  0
    0.0000    0.0000    0.0000 C   0  0  0  0  0  0  0  0  0  0  0  0
    0.0000    0.0000    0.0000 C   0  0  0  0  0  0  0  0  0  0  0  0
    0.0000    0.0000    0.0000 S   0  0  0  0  0  0  0  0  0  0  0  0
    0.0000    0.0000    0.0000 O   0  0  0  0  0  0  0  0  0  0  0  0
    0.0000    0.0000    0.0000 O   0  0  0  0  0  0  0  0  0  0  0  0
    0.0000    0.0000    0.0000 N   0  0  0  0  0  0  0  0  0  0  0  0
  1  2  1  0
  2  3  1  0
  3  4  2  0
  4  5  1  0
  5  6  2  0
  6  7  1  0
  7  8  2  0
  6  9  1  0
  9 10  2  0
  9 11  2  0
  9 12  1  0
 12 13  2  0
 13 14  1  0
 14 15  1  0
 15 16  2  0
 15 17  1  0
 17 18  2  0
 17 19  2  0
 17 20  1  0
  8  3  1  0
 16 12  1  0
M  END
>  <pIC50>  (33) 
8.6

>  <ChEMBL_ID>  (33) 
CHEMBL123979

>  <document_journal>  (33) 
J. Med. Chem.

>  <bao_endpoint>  (33) 
BAO_0000190

>  <potential_duplicate>  (33) 
False

>  <uo_units>  (33) 
UO_0000065

>  <canonical_smiles>  (33) 
COc1ccc(cc1)S(=O)(=O)c2coc(c2)S(=O)(=O)N

>  <parent_molecule_chembl_id>  (33) 
CHEMBL123979

>  <assay_type>  (33) 
B

>  <src_id>  (33) 
1

>  <ligand_efficiency>  (33) 
{u'le': u'0.59', u'bei': u'27.11', u'sei': u'6.45', u'lle': u'7.75'}

>  <standard_flag>  (33) 
True

>  <molecule_chembl_id>  (33) 
CHEMBL123979

>  <target_organism>  (33) 
Homo sapiens

>  <standard_units>  (33) 
nM

>  <record_id>  (33) 
239350

>  <document_chembl_id>  (33) 
CHEMBL1125318

>  <bao_format>  (33) 
BAO_0000357

>  <data_validity_description>  (33) 
None

>  <activity_id>  (33) 
65346

>  <standard_type>  (33) 
IC50

>  <target_chembl_id>  (33) 
CHEMBL205

>  <data_validity_comment>  (33) 
None

>  <published_value>  (33) 
2.5E-9

>  <document_year>  (33) 
1992

>  <target_pref_name>  (33) 
Carbonic anhydrase II

>  <assay_chembl_id>  (33) 
CHEMBL656569

>  <standard_relation>  (33) 
=

>  <assay_description>  (33) 
Inhibition of human carbonic anhydrase II

>  <published_relation>  (33) 
=

>  <standard_value>  (33) 
2.5

>  <qudt_units>  (33) 
http://www.openphacts.org/units/Nanomolar

>  <target_tax_id>  (33) 
9606

>  <bao_label>  (33) 
single protein format

>  <published_units>  (33) 
M

>  <pchembl_value>  (33) 
8.6

>  <published_type>  (33) 
I50

>  <activity_comment>  (33) 
None

$$$$

     RDKit          

 18 19  0  0  0  0  0  0  0  0999 V2000
    0.0000    0.0000    0.0000 N   0  0  0  0  0  0  0  0  0  0  0  0
    0.0000    0.0000    0.0000 S   0  0  0  0  0  0  0  0  0  0  0  0
    0.0000    0.0000    0.0000 O   0  0  0  0  0  0  0  0  0  0  0  0
    0.0000    0.0000    0.0000 O   0  0  0  0  0  0  0  0  0  0  0  0
    0.0000    0.0000    0.0000 C   0  0  0  0  0  0  0  0  0  0  0  0
    0.0000    0.0000    0.0000 C   0  0  0  0  0  0  0  0  0  0  0  0
    0.0000    0.0000    0.0000 C   0  0  0  0  0  0  0  0  0  0  0  0
    0.0000    0.0000    0.0000 C   0  0  0  0  0  0  0  0  0  0  0  0
    0.0000    0.0000    0.0000 S   0  0  0  0  0  0  0  0  0  0  0  0
    0.0000    0.0000    0.0000 C   0  0  0  0  0  0  0  0  0  0  0  0
    0.0000    0.0000    0.0000 O   0  0  0  0  0  0  0  0  0  0  0  0
    0.0000    0.0000    0.0000 C   0  0  0  0  0  0  0  0  0  0  0  0
    0.0000    0.0000    0.0000 C   0  0  0  0  0  0  0  0  0  0  0  0
    0.0000    0.0000    0.0000 C   0  0  0  0  0  0  0  0  0  0  0  0
    0.0000    0.0000    0.0000 C   0  0  0  0  0  0  0  0  0  0  0  0
    0.0000    0.0000    0.0000 O   0  0  0  0  0  0  0  0  0  0  0  0
    0.0000    0.0000    0.0000 C   0  0  0  0  0  0  0  0  0  0  0  0
    0.0000    0.0000    0.0000 C   0  0  0  0  0  0  0  0  0  0  0  0
  1  2  1  0
  2  3  2  0
  2  4  2  0
  2  5  1  0
  5  6  2  0
  6  7  1  0
  7  8  2  0
  8  9  1  0
  7 10  1  0
 10 11  2  0
 10 12  1  0
 12 13  2  0
 13 14  1  0
 14 15  2  0
 15 16  1  0
 15 17  1  0
 17 18  2  0
  9  5  1  0
 18 12  1  0
M  END
>  <pIC50>  (34) 
8.6

>  <ChEMBL_ID>  (34) 
CHEMBL125102

>  <document_journal>  (34) 
J. Med. Chem.

>  <bao_endpoint>  (34) 
BAO_0000190

>  <potential_duplicate>  (34) 
False

>  <uo_units>  (34) 
UO_0000065

>  <canonical_smiles>  (34) 
NS(=O)(=O)c1cc(cs1)C(=O)c2ccc(O)cc2

>  <parent_molecule_chembl_id>  (34) 
CHEMBL125102

>  <assay_type>  (34) 
B

>  <src_id>  (34) 
1

>  <ligand_efficiency>  (34) 
{u'le': u'0.65', u'bei': u'30.36', u'sei': u'6.42', u'lle': u'7.12'}

>  <standard_flag>  (34) 
True

>  <molecule_chembl_id>  (34) 
CHEMBL125102

>  <target_organism>  (34) 
Homo sapiens

>  <standard_units>  (34) 
nM

>  <record_id>  (34) 
239351

>  <document_chembl_id>  (34) 
CHEMBL1125318

>  <bao_format>  (34) 
BAO_0000357

>  <data_validity_description>  (34) 
None

>  <activity_id>  (34) 
66637

>  <standard_type>  (34) 
IC50

>  <target_chembl_id>  (34) 
CHEMBL205

>  <data_validity_comment>  (34) 
None

>  <published_value>  (34) 
2.5E-9

>  <document_year>  (34) 
1992

>  <target_pref_name>  (34) 
Carbonic anhydrase II

>  <assay_chembl_id>  (34) 
CHEMBL656569

>  <standard_relation>  (34) 
=

>  <assay_description>  (34) 
Inhibition of human carbonic anhydrase II

>  <published_relation>  (34) 
=

>  <standard_value>  (34) 
2.5

>  <qudt_units>  (34) 
http://www.openphacts.org/units/Nanomolar

>  <target_tax_id>  (34) 
9606

>  <bao_label>  (34) 
single protein format

>  <published_units>  (34) 
M

>  <pchembl_value>  (34) 
8.6

>  <published_type>  (34) 
I50

>  <activity_comment>  (34) 
None

$$$$

     RDKit          

 18 19  0  0  0  0  0  0  0  0999 V2000
    0.0000    0.0000    0.0000 C   0  0  0  0  0  0  0  0  0  0  0  0
    0.0000    0.0000    0.0000 C   0  0  0  0  0  0  0  0  0  0  0  0
    0.0000    0.0000    0.0000 C   0  0  0  0  0  0  0  0  0  0  0  0
    0.0000    0.0000    0.0000 C   0  0  0  0  0  0  0  0  0  0  0  0
    0.0000    0.0000    0.0000 C   0  0  0  0  0  0  0  0  0  0  0  0
    0.0000    0.0000    0.0000 C   0  0  0  0  0  0  0  0  0  0  0  0
    0.0000    0.0000    0.0000 C   0  0  0  0  0  0  0  0  0  0  0  0
    0.0000    0.0000    0.0000 C   0  0  0  0  0  0  0  0  0  0  0  0
    0.0000    0.0000    0.0000 O   0  0  0  0  0  0  0  0  0  0  0  0
    0.0000    0.0000    0.0000 C   0  0  0  0  0  0  0  0  0  0  0  0
    0.0000    0.0000    0.0000 C   0  0  0  0  0  0  0  0  0  0  0  0
    0.0000    0.0000    0.0000 S   0  0  0  0  0  0  0  0  0  0  0  0
    0.0000    0.0000    0.0000 C   0  0  0  0  0  0  0  0  0  0  0  0
    0.0000    0.0000    0.0000 C   0  0  0  0  0  0  0  0  0  0  0  0
    0.0000    0.0000    0.0000 S   0  0  0  0  0  0  0  0  0  0  0  0
    0.0000    0.0000    0.0000 O   0  0  0  0  0  0  0  0  0  0  0  0
    0.0000    0.0000    0.0000 O   0  0  0  0  0  0  0  0  0  0  0  0
    0.0000    0.0000    0.0000 N   0  0  0  0  0  0  0  0  0  0  0  0
  1  2  1  0
  2  3  2  0
  3  4  1  0
  4  5  2  0
  5  6  1  0
  6  7  2  0
  5  8  1  0
  8  9  2  0
  8 10  1  0
 10 11  2  0
 11 12  1  0
 12 13  1  0
 13 14  2  0
 13 15  1  0
 15 16  2  0
 15 17  2  0
 15 18  1  0
  7  2  1  0
 14 10  1  0
M  END
>  <pIC50>  (35) 
8.7

>  <ChEMBL_ID>  (35) 
CHEMBL341037

>  <document_journal>  (35) 
J. Med. Chem.

>  <bao_endpoint>  (35) 
BAO_0000190

>  <potential_duplicate>  (35) 
False

>  <uo_units>  (35) 
UO_0000065

>  <canonical_smiles>  (35) 
Cc1ccc(cc1)C(=O)c2csc(c2)S(=O)(=O)N

>  <parent_molecule_chembl_id>  (35) 
CHEMBL341037

>  <assay_type>  (35) 
B

>  <src_id>  (35) 
1

>  <ligand_efficiency>  (35) 
{u'le': u'0.66', u'bei': u'30.92', u'sei': u'7.64', u'lle': u'6.49'}

>  <standard_flag>  (35) 
True

>  <molecule_chembl_id>  (35) 
CHEMBL341037

>  <target_organism>  (35) 
Homo sapiens

>  <standard_units>  (35) 
nM

>  <record_id>  (35) 
239311

>  <document_chembl_id>  (35) 
CHEMBL1125318

>  <bao_format>  (35) 
BAO_0000357

>  <data_validity_description>  (35) 
None

>  <activity_id>  (35) 
66642

>  <standard_type>  (35) 
IC50

>  <target_chembl_id>  (35) 
CHEMBL205

>  <data_validity_comment>  (35) 
None

>  <published_value>  (35) 
2E-9

>  <document_year>  (35) 
1992

>  <target_pref_name>  (35) 
Carbonic anhydrase II

>  <assay_chembl_id>  (35) 
CHEMBL656569

>  <standard_relation>  (35) 
=

>  <assay_description>  (35) 
Inhibition of human carbonic anhydrase II

>  <published_relation>  (35) 
=

>  <standard_value>  (35) 
2

>  <qudt_units>  (35) 
http://www.openphacts.org/units/Nanomolar

>  <target_tax_id>  (35) 
9606

>  <bao_label>  (35) 
single protein format

>  <published_units>  (35) 
M

>  <pchembl_value>  (35) 
8.7

>  <published_type>  (35) 
I50

>  <activity_comment>  (35) 
None

$$$$

     RDKit          

 24 25  0  0  0  0  0  0  0  0999 V2000
    0.0000    0.0000    0.0000 C   0  0  0  0  0  0  0  0  0  0  0  0
    0.0000    0.0000    0.0000 C   0  0  0  0  0  0  0  0  0  0  0  0
    0.0000    0.0000    0.0000 C   0  0  0  0  0  0  0  0  0  0  0  0
    0.0000    0.0000    0.0000 C   0  0  0  0  0  0  0  0  0  0  0  0
    0.0000    0.0000    0.0000 N   0  0  0  0  0  0  0  0  0  0  0  0
    0.0000    0.0000    0.0000 C   0  0  0  0  0  0  0  0  0  0  0  0
    0.0000    0.0000    0.0000 C   0  0  0  0  0  0  0  0  0  0  0  0
    0.0000    0.0000    0.0000 C   0  0  0  0  0  0  0  0  0  0  0  0
    0.0000    0.0000    0.0000 C   0  0  0  0  0  0  0  0  0  0  0  0
    0.0000    0.0000    0.0000 C   0  0  0  0  0  0  0  0  0  0  0  0
    0.0000    0.0000    0.0000 C   0  0  0  0  0  0  0  0  0  0  0  0
    0.0000    0.0000    0.0000 C   0  0  0  0  0  0  0  0  0  0  0  0
    0.0000    0.0000    0.0000 S   0  0  0  0  0  0  0  0  0  0  0  0
    0.0000    0.0000    0.0000 O   0  0  0  0  0  0  0  0  0  0  0  0
    0.0000    0.0000    0.0000 O   0  0  0  0  0  0  0  0  0  0  0  0
    0.0000    0.0000    0.0000 C   0  0  0  0  0  0  0  0  0  0  0  0
    0.0000    0.0000    0.0000 C   0  0  0  0  0  0  0  0  0  0  0  0
    0.0000    0.0000    0.0000 S   0  0  0  0  0  0  0  0  0  0  0  0
    0.0000    0.0000    0.0000 C   0  0  0  0  0  0  0  0  0  0  0  0
    0.0000    0.0000    0.0000 C   0  0  0  0  0  0  0  0  0  0  0  0
    0.0000    0.0000    0.0000 S   0  0  0  0  0  0  0  0  0  0  0  0
    0.0000    0.0000    0.0000 O   0  0  0  0  0  0  0  0  0  0  0  0
    0.0000    0.0000    0.0000 O   0  0  0  0  0  0  0  0  0  0  0  0
    0.0000    0.0000    0.0000 N   0  0  0  0  0  0  0  0  0  0  0  0
  1  2  1  0
  2  3  1  0
  2  4  1  0
  4  5  1  0
  5  6  1  0
  6  7  1  0
  7  8  2  0
  8  9  1  0
  9 10  2  0
 10 11  1  0
 11 12  2  0
 12 13  1  0
 13 14  2  0
 13 15  2  0
 13 16  1  0
 16 17  2  0
 17 18  1  0
 18 19  1  0
 19 20  2  0
 19 21  1  0
 21 22  2  0
 21 23  2  0
 21 24  1  0
 12  7  1  0
 20 16  1  0
M  END
>  <pIC50>  (36) 
7.75

>  <ChEMBL_ID>  (36) 
CHEMBL555588

>  <document_journal>  (36) 
J. Med. Chem.

>  <bao_endpoint>  (36) 
BAO_0000190

>  <potential_duplicate>  (36) 
False

>  <uo_units>  (36) 
UO_0000065

>  <canonical_smiles>  (36) 
Cl.CC(C)CNCc1ccccc1S(=O)(=O)c2csc(c2)S(=O)(=O)N

>  <parent_molecule_chembl_id>  (36) 
CHEMBL1195921

>  <assay_type>  (36) 
B

>  <src_id>  (36) 
1

>  <ligand_efficiency>  (36) 
{u'le': u'0.44', u'bei': u'19.93', u'sei': u'5.12', u'lle': u'5.59'}

>  <standard_flag>  (36) 
True

>  <molecule_chembl_id>  (36) 
CHEMBL555588

>  <target_organism>  (36) 
Homo sapiens

>  <standard_units>  (36) 
nM

>  <record_id>  (36) 
239330

>  <document_chembl_id>  (36) 
CHEMBL1125318

>  <bao_format>  (36) 
BAO_0000357

>  <data_validity_description>  (36) 
None

>  <activity_id>  (36) 
66648

>  <standard_type>  (36) 
IC50

>  <target_chembl_id>  (36) 
CHEMBL205

>  <data_validity_comment>  (36) 
None

>  <published_value>  (36) 
1.8E-8

>  <document_year>  (36) 
1992

>  <target_pref_name>  (36) 
Carbonic anhydrase II

>  <assay_chembl_id>  (36) 
CHEMBL656569

>  <standard_relation>  (36) 
=

>  <assay_description>  (36) 
Inhibition of human carbonic anhydrase II

>  <published_relation>  (36) 
=

>  <standard_value>  (36) 
18

>  <qudt_units>  (36) 
http://www.openphacts.org/units/Nanomolar

>  <target_tax_id>  (36) 
9606

>  <bao_label>  (36) 
single protein format

>  <published_units>  (36) 
M

>  <pchembl_value>  (36) 
7.75

>  <published_type>  (36) 
I50

>  <activity_comment>  (36) 
None

$$$$

     RDKit          

 25 26  0  0  0  0  0  0  0  0999 V2000
    0.0000    0.0000    0.0000 C   0  0  0  0  0  0  0  0  0  0  0  0
    0.0000    0.0000    0.0000 C   0  0  0  0  0  0  0  0  0  0  0  0
    0.0000    0.0000    0.0000 N   0  0  0  0  0  0  0  0  0  0  0  0
    0.0000    0.0000    0.0000 C   0  0  0  0  0  0  0  0  0  0  0  0
    0.0000    0.0000    0.0000 C   0  0  0  0  0  0  0  0  0  0  0  0
    0.0000    0.0000    0.0000 C   0  0  0  0  0  0  0  0  0  0  0  0
    0.0000    0.0000    0.0000 C   0  0  0  0  0  0  0  0  0  0  0  0
    0.0000    0.0000    0.0000 C   0  0  0  0  0  0  0  0  0  0  0  0
    0.0000    0.0000    0.0000 C   0  0  0  0  0  0  0  0  0  0  0  0
    0.0000    0.0000    0.0000 C   0  0  0  0  0  0  0  0  0  0  0  0
    0.0000    0.0000    0.0000 C   0  0  0  0  0  0  0  0  0  0  0  0
    0.0000    0.0000    0.0000 C   0  0  0  0  0  0  0  0  0  0  0  0
    0.0000    0.0000    0.0000 O   0  0  0  0  0  0  0  0  0  0  0  0
    0.0000    0.0000    0.0000 S   0  0  0  0  0  0  0  0  0  0  0  0
    0.0000    0.0000    0.0000 O   0  0  0  0  0  0  0  0  0  0  0  0
    0.0000    0.0000    0.0000 O   0  0  0  0  0  0  0  0  0  0  0  0
    0.0000    0.0000    0.0000 C   0  0  0  0  0  0  0  0  0  0  0  0
    0.0000    0.0000    0.0000 C   0  0  0  0  0  0  0  0  0  0  0  0
    0.0000    0.0000    0.0000 S   0  0  0  0  0  0  0  0  0  0  0  0
    0.0000    0.0000    0.0000 C   0  0  0  0  0  0  0  0  0  0  0  0
    0.0000    0.0000    0.0000 C   0  0  0  0  0  0  0  0  0  0  0  0
    0.0000    0.0000    0.0000 S   0  0  0  0  0  0  0  0  0  0  0  0
    0.0000    0.0000    0.0000 O   0  0  0  0  0  0  0  0  0  0  0  0
    0.0000    0.0000    0.0000 O   0  0  0  0  0  0  0  0  0  0  0  0
    0.0000    0.0000    0.0000 N   0  0  0  0  0  0  0  0  0  0  0  0
  1  2  1  0
  2  3  1  0
  3  4  1  0
  4  5  1  0
  3  6  1  0
  6  7  1  0
  7  8  2  0
  8  9  1  0
  9 10  2  0
 10 11  1  0
 11 12  2  0
 12 13  1  0
 10 14  1  0
 14 15  2  0
 14 16  2  0
 14 17  1  0
 17 18  2  0
 18 19  1  0
 19 20  1  0
 20 21  2  0
 20 22  1  0
 22 23  2  0
 22 24  2  0
 22 25  1  0
 12  7  1  0
 21 17  1  0
M  END
>  <pIC50>  (37) 
7.8

>  <ChEMBL_ID>  (37) 
CHEMBL545527

>  <document_journal>  (37) 
J. Med. Chem.

>  <bao_endpoint>  (37) 
BAO_0000190

>  <potential_duplicate>  (37) 
False

>  <uo_units>  (37) 
UO_0000065

>  <canonical_smiles>  (37) 
Cl.CCN(CC)Cc1ccc(cc1O)S(=O)(=O)c2csc(c2)S(=O)(=O)N

>  <parent_molecule_chembl_id>  (37) 
CHEMBL1194027

>  <assay_type>  (37) 
B

>  <src_id>  (37) 
1

>  <ligand_efficiency>  (37) 
{u'le': u'0.43', u'bei': u'19.27', u'sei': u'4.79', u'lle': u'5.85'}

>  <standard_flag>  (37) 
True

>  <molecule_chembl_id>  (37) 
CHEMBL545527

>  <target_organism>  (37) 
Homo sapiens

>  <standard_units>  (37) 
nM

>  <record_id>  (37) 
239321

>  <document_chembl_id>  (37) 
CHEMBL1125318

>  <bao_format>  (37) 
BAO_0000357

>  <data_validity_description>  (37) 
None

>  <activity_id>  (37) 
67884

>  <standard_type>  (37) 
IC50

>  <target_chembl_id>  (37) 
CHEMBL205

>  <data_validity_comment>  (37) 
None

>  <published_value>  (37) 
1.6E-8

>  <document_year>  (37) 
1992

>  <target_pref_name>  (37) 
Carbonic anhydrase II

>  <assay_chembl_id>  (37) 
CHEMBL656569

>  <standard_relation>  (37) 
=

>  <assay_description>  (37) 
Inhibition of human carbonic anhydrase II

>  <published_relation>  (37) 
=

>  <standard_value>  (37) 
16

>  <qudt_units>  (37) 
http://www.openphacts.org/units/Nanomolar

>  <target_tax_id>  (37) 
9606

>  <bao_label>  (37) 
single protein format

>  <published_units>  (37) 
M

>  <pchembl_value>  (37) 
7.8

>  <published_type>  (37) 
I50

>  <activity_comment>  (37) 
None

$$$$

     RDKit          

 19 20  0  0  0  0  0  0  0  0999 V2000
    0.0000    0.0000    0.0000 C   0  0  0  0  0  0  0  0  0  0  0  0
    0.0000    0.0000    0.0000 O   0  0  0  0  0  0  0  0  0  0  0  0
    0.0000    0.0000    0.0000 C   0  0  0  0  0  0  0  0  0  0  0  0
    0.0000    0.0000    0.0000 C   0  0  0  0  0  0  0  0  0  0  0  0
    0.0000    0.0000    0.0000 C   0  0  0  0  0  0  0  0  0  0  0  0
    0.0000    0.0000    0.0000 C   0  0  0  0  0  0  0  0  0  0  0  0
    0.0000    0.0000    0.0000 C   0  0  0  0  0  0  0  0  0  0  0  0
    0.0000    0.0000    0.0000 C   0  0  0  0  0  0  0  0  0  0  0  0
    0.0000    0.0000    0.0000 C   0  0  0  0  0  0  0  0  0  0  0  0
    0.0000    0.0000    0.0000 O   0  0  0  0  0  0  0  0  0  0  0  0
    0.0000    0.0000    0.0000 C   0  0  0  0  0  0  0  0  0  0  0  0
    0.0000    0.0000    0.0000 C   0  0  0  0  0  0  0  0  0  0  0  0
    0.0000    0.0000    0.0000 S   0  0  0  0  0  0  0  0  0  0  0  0
    0.0000    0.0000    0.0000 C   0  0  0  0  0  0  0  0  0  0  0  0
    0.0000    0.0000    0.0000 C   0  0  0  0  0  0  0  0  0  0  0  0
    0.0000    0.0000    0.0000 S   0  0  0  0  0  0  0  0  0  0  0  0
    0.0000    0.0000    0.0000 O   0  0  0  0  0  0  0  0  0  0  0  0
    0.0000    0.0000    0.0000 O   0  0  0  0  0  0  0  0  0  0  0  0
    0.0000    0.0000    0.0000 N   0  0  0  0  0  0  0  0  0  0  0  0
  1  2  1  0
  2  3  1  0
  3  4  2  0
  4  5  1  0
  5  6  2  0
  6  7  1  0
  7  8  2  0
  6  9  1  0
  9 10  2  0
  9 11  1  0
 11 12  2  0
 12 13  1  0
 13 14  1  0
 14 15  2  0
 14 16  1  0
 16 17  2  0
 16 18  2  0
 16 19  1  0
  8  3  1  0
 15 11  1  0
M  END
>  <pIC50>  (38) 
8.5

>  <ChEMBL_ID>  (38) 
CHEMBL413114

>  <document_journal>  (38) 
J. Med. Chem.

>  <bao_endpoint>  (38) 
BAO_0000190

>  <potential_duplicate>  (38) 
False

>  <uo_units>  (38) 
UO_0000065

>  <canonical_smiles>  (38) 
COc1ccc(cc1)C(=O)c2csc(c2)S(=O)(=O)N

>  <parent_molecule_chembl_id>  (38) 
CHEMBL413114

>  <assay_type>  (38) 
B

>  <src_id>  (38) 
1

>  <ligand_efficiency>  (38) 
{u'le': u'0.61', u'bei': u'28.57', u'sei': u'6.9', u'lle': u'6.78'}

>  <standard_flag>  (38) 
True

>  <molecule_chembl_id>  (38) 
CHEMBL413114

>  <target_organism>  (38) 
Homo sapiens

>  <standard_units>  (38) 
nM

>  <record_id>  (38) 
239310

>  <document_chembl_id>  (38) 
CHEMBL1125318

>  <bao_format>  (38) 
BAO_0000357

>  <data_validity_description>  (38) 
None

>  <activity_id>  (38) 
69154

>  <standard_type>  (38) 
IC50

>  <target_chembl_id>  (38) 
CHEMBL205

>  <data_validity_comment>  (38) 
None

>  <published_value>  (38) 
3.2E-9

>  <document_year>  (38) 
1992

>  <target_pref_name>  (38) 
Carbonic anhydrase II

>  <assay_chembl_id>  (38) 
CHEMBL656569

>  <standard_relation>  (38) 
=

>  <assay_description>  (38) 
Inhibition of human carbonic anhydrase II

>  <published_relation>  (38) 
=

>  <standard_value>  (38) 
3.2

>  <qudt_units>  (38) 
http://www.openphacts.org/units/Nanomolar

>  <target_tax_id>  (38) 
9606

>  <bao_label>  (38) 
single protein format

>  <published_units>  (38) 
M

>  <pchembl_value>  (38) 
8.5

>  <published_type>  (38) 
I50

>  <activity_comment>  (38) 
None

$$$$

     RDKit          

 19 20  0  0  0  0  0  0  0  0999 V2000
    0.0000    0.0000    0.0000 C   0  0  0  0  0  0  0  0  0  0  0  0
    0.0000    0.0000    0.0000 C   0  0  0  0  0  0  0  0  0  0  0  0
    0.0000    0.0000    0.0000 C   0  0  0  0  0  0  0  0  0  0  0  0
    0.0000    0.0000    0.0000 C   0  0  0  0  0  0  0  0  0  0  0  0
    0.0000    0.0000    0.0000 C   0  0  0  0  0  0  0  0  0  0  0  0
    0.0000    0.0000    0.0000 C   0  0  0  0  0  0  0  0  0  0  0  0
    0.0000    0.0000    0.0000 C   0  0  0  0  0  0  0  0  0  0  0  0
    0.0000    0.0000    0.0000 S   0  0  0  0  0  0  0  0  0  0  0  0
    0.0000    0.0000    0.0000 O   0  0  0  0  0  0  0  0  0  0  0  0
    0.0000    0.0000    0.0000 O   0  0  0  0  0  0  0  0  0  0  0  0
    0.0000    0.0000    0.0000 C   0  0  0  0  0  0  0  0  0  0  0  0
    0.0000    0.0000    0.0000 C   0  0  0  0  0  0  0  0  0  0  0  0
    0.0000    0.0000    0.0000 S   0  0  0  0  0  0  0  0  0  0  0  0
    0.0000    0.0000    0.0000 C   0  0  0  0  0  0  0  0  0  0  0  0
    0.0000    0.0000    0.0000 C   0  0  0  0  0  0  0  0  0  0  0  0
    0.0000    0.0000    0.0000 S   0  0  0  0  0  0  0  0  0  0  0  0
    0.0000    0.0000    0.0000 O   0  0  0  0  0  0  0  0  0  0  0  0
    0.0000    0.0000    0.0000 O   0  0  0  0  0  0  0  0  0  0  0  0
    0.0000    0.0000    0.0000 N   0  0  0  0  0  0  0  0  0  0  0  0
  1  2  1  0
  2  3  2  0
  3  4  1  0
  4  5  2  0
  5  6  1  0
  6  7  2  0
  5  8  1  0
  8  9  2  0
  8 10  2  0
  8 11  1  0
 11 12  2  0
 12 13  1  0
 13 14  1  0
 14 15  2  0
 14 16  1  0
 16 17  2  0
 16 18  2  0
 16 19  1  0
  7  2  1  0
 15 11  1  0
M  END
>  <pIC50>  (39) 
8.5

>  <ChEMBL_ID>  (39) 
CHEMBL333588

>  <document_journal>  (39) 
J. Med. Chem.

>  <bao_endpoint>  (39) 
BAO_0000190

>  <potential_duplicate>  (39) 
False

>  <uo_units>  (39) 
UO_0000065

>  <canonical_smiles>  (39) 
Cc1ccc(cc1)S(=O)(=O)c2csc(c2)S(=O)(=O)N

>  <parent_molecule_chembl_id>  (39) 
CHEMBL333588

>  <assay_type>  (39) 
B

>  <src_id>  (39) 
1

>  <ligand_efficiency>  (39) 
{u'le': u'0.61', u'bei': u'26.76', u'sei': u'6.1', u'lle': u'6.58'}

>  <standard_flag>  (39) 
True

>  <molecule_chembl_id>  (39) 
CHEMBL333588

>  <target_organism>  (39) 
Homo sapiens

>  <standard_units>  (39) 
nM

>  <record_id>  (39) 
239339

>  <document_chembl_id>  (39) 
CHEMBL1125318

>  <bao_format>  (39) 
BAO_0000357

>  <data_validity_description>  (39) 
None

>  <activity_id>  (39) 
69159

>  <standard_type>  (39) 
IC50

>  <target_chembl_id>  (39) 
CHEMBL205

>  <data_validity_comment>  (39) 
None

>  <published_value>  (39) 
3.2E-9

>  <document_year>  (39) 
1992

>  <target_pref_name>  (39) 
Carbonic anhydrase II

>  <assay_chembl_id>  (39) 
CHEMBL656569

>  <standard_relation>  (39) 
=

>  <assay_description>  (39) 
Inhibition of human carbonic anhydrase II

>  <published_relation>  (39) 
=

>  <standard_value>  (39) 
3.2

>  <qudt_units>  (39) 
http://www.openphacts.org/units/Nanomolar

>  <target_tax_id>  (39) 
9606

>  <bao_label>  (39) 
single protein format

>  <published_units>  (39) 
M

>  <pchembl_value>  (39) 
8.5

>  <published_type>  (39) 
I50

>  <activity_comment>  (39) 
None

$$$$

     RDKit          

 24 25  0  0  0  0  0  0  0  0999 V2000
    0.0000    0.0000    0.0000 C   0  0  0  0  0  0  0  0  0  0  0  0
    0.0000    0.0000    0.0000 C   0  0  0  0  0  0  0  0  0  0  0  0
    0.0000    0.0000    0.0000 C   0  0  0  0  0  0  0  0  0  0  0  0
    0.0000    0.0000    0.0000 C   0  0  0  0  0  0  0  0  0  0  0  0
    0.0000    0.0000    0.0000 N   0  0  0  0  0  0  0  0  0  0  0  0
    0.0000    0.0000    0.0000 C   0  0  0  0  0  0  0  0  0  0  0  0
    0.0000    0.0000    0.0000 C   0  0  0  0  0  0  0  0  0  0  0  0
    0.0000    0.0000    0.0000 C   0  0  0  0  0  0  0  0  0  0  0  0
    0.0000    0.0000    0.0000 C   0  0  0  0  0  0  0  0  0  0  0  0
    0.0000    0.0000    0.0000 C   0  0  0  0  0  0  0  0  0  0  0  0
    0.0000    0.0000    0.0000 C   0  0  0  0  0  0  0  0  0  0  0  0
    0.0000    0.0000    0.0000 C   0  0  0  0  0  0  0  0  0  0  0  0
    0.0000    0.0000    0.0000 S   0  0  0  0  0  0  0  0  0  0  0  0
    0.0000    0.0000    0.0000 O   0  0  0  0  0  0  0  0  0  0  0  0
    0.0000    0.0000    0.0000 O   0  0  0  0  0  0  0  0  0  0  0  0
    0.0000    0.0000    0.0000 C   0  0  0  0  0  0  0  0  0  0  0  0
    0.0000    0.0000    0.0000 C   0  0  0  0  0  0  0  0  0  0  0  0
    0.0000    0.0000    0.0000 S   0  0  0  0  0  0  0  0  0  0  0  0
    0.0000    0.0000    0.0000 C   0  0  0  0  0  0  0  0  0  0  0  0
    0.0000    0.0000    0.0000 C   0  0  0  0  0  0  0  0  0  0  0  0
    0.0000    0.0000    0.0000 S   0  0  0  0  0  0  0  0  0  0  0  0
    0.0000    0.0000    0.0000 O   0  0  0  0  0  0  0  0  0  0  0  0
    0.0000    0.0000    0.0000 O   0  0  0  0  0  0  0  0  0  0  0  0
    0.0000    0.0000    0.0000 N   0  0  0  0  0  0  0  0  0  0  0  0
  1  2  1  0
  2  3  1  0
  3  4  1  0
  3  5  1  0
  5  6  1  0
  6  7  1  0
  7  8  2  0
  8  9  1  0
  9 10  2  0
 10 11  1  0
 11 12  2  0
 11 13  1  0
 13 14  2  0
 13 15  2  0
 13 16  1  0
 16 17  2  0
 17 18  1  0
 18 19  1  0
 19 20  2  0
 19 21  1  0
 21 22  2  0
 21 23  2  0
 21 24  1  0
 12  7  1  0
 20 16  1  0
M  END
>  <pIC50>  (40) 
7.59

>  <ChEMBL_ID>  (40) 
CHEMBL544826

>  <document_journal>  (40) 
J. Med. Chem.

>  <bao_endpoint>  (40) 
BAO_0000190

>  <potential_duplicate>  (40) 
False

>  <uo_units>  (40) 
UO_0000065

>  <canonical_smiles>  (40) 
Cl.CCC(C)NCc1cccc(c1)S(=O)(=O)c2csc(c2)S(=O)(=O)N

>  <parent_molecule_chembl_id>  (40) 
CHEMBL1193423

>  <assay_type>  (40) 
B

>  <src_id>  (40) 
1

>  <ligand_efficiency>  (40) 
{u'le': u'0.43', u'bei': u'19.52', u'sei': u'5.01', u'lle': u'5.38'}

>  <standard_flag>  (40) 
True

>  <molecule_chembl_id>  (40) 
CHEMBL544826

>  <target_organism>  (40) 
Homo sapiens

>  <standard_units>  (40) 
nM

>  <record_id>  (40) 
239331

>  <document_chembl_id>  (40) 
CHEMBL1125318

>  <bao_format>  (40) 
BAO_0000357

>  <data_validity_description>  (40) 
None

>  <activity_id>  (40) 
70596

>  <standard_type>  (40) 
IC50

>  <target_chembl_id>  (40) 
CHEMBL205

>  <data_validity_comment>  (40) 
None

>  <published_value>  (40) 
2.6E-8

>  <document_year>  (40) 
1992

>  <target_pref_name>  (40) 
Carbonic anhydrase II

>  <assay_chembl_id>  (40) 
CHEMBL656569

>  <standard_relation>  (40) 
=

>  <assay_description>  (40) 
Inhibition of human carbonic anhydrase II

>  <published_relation>  (40) 
=

>  <standard_value>  (40) 
26

>  <qudt_units>  (40) 
http://www.openphacts.org/units/Nanomolar

>  <target_tax_id>  (40) 
9606

>  <bao_label>  (40) 
single protein format

>  <published_units>  (40) 
M

>  <pchembl_value>  (40) 
7.59

>  <published_type>  (40) 
I50

>  <activity_comment>  (40) 
None

$$$$

     RDKit          

 27 29  0  0  0  0  0  0  0  0999 V2000
    0.0000    0.0000    0.0000 N   0  0  0  0  0  0  0  0  0  0  0  0
    0.0000    0.0000    0.0000 S   0  0  0  0  0  0  0  0  0  0  0  0
    0.0000    0.0000    0.0000 O   0  0  0  0  0  0  0  0  0  0  0  0
    0.0000    0.0000    0.0000 O   0  0  0  0  0  0  0  0  0  0  0  0
    0.0000    0.0000    0.0000 C   0  0  0  0  0  0  0  0  0  0  0  0
    0.0000    0.0000    0.0000 C   0  0  0  0  0  0  0  0  0  0  0  0
    0.0000    0.0000    0.0000 C   0  0  0  0  0  0  0  0  0  0  0  0
    0.0000    0.0000    0.0000 C   0  0  0  0  0  0  0  0  0  0  0  0
    0.0000    0.0000    0.0000 S   0  0  0  0  0  0  0  0  0  0  0  0
    0.0000    0.0000    0.0000 S   0  0  0  0  0  0  0  0  0  0  0  0
    0.0000    0.0000    0.0000 O   0  0  0  0  0  0  0  0  0  0  0  0
    0.0000    0.0000    0.0000 O   0  0  0  0  0  0  0  0  0  0  0  0
    0.0000    0.0000    0.0000 C   0  0  0  0  0  0  0  0  0  0  0  0
    0.0000    0.0000    0.0000 C   0  0  0  0  0  0  0  0  0  0  0  0
    0.0000    0.0000    0.0000 C   0  0  0  0  0  0  0  0  0  0  0  0
    0.0000    0.0000    0.0000 C   0  0  0  0  0  0  0  0  0  0  0  0
    0.0000    0.0000    0.0000 C   0  0  0  0  0  0  0  0  0  0  0  0
    0.0000    0.0000    0.0000 N   0  0  0  0  0  0  0  0  0  0  0  0
    0.0000    0.0000    0.0000 C   0  0  0  0  0  0  0  0  0  0  0  0
    0.0000    0.0000    0.0000 C   0  0  0  0  0  0  0  0  0  0  0  0
    0.0000    0.0000    0.0000 C   0  0  0  0  0  0  0  0  0  0  0  0
    0.0000    0.0000    0.0000 C   0  0  0  0  0  0  0  0  0  0  0  0
    0.0000    0.0000    0.0000 C   0  0  0  0  0  0  0  0  0  0  0  0
    0.0000    0.0000    0.0000 C   0  0  0  0  0  0  0  0  0  0  0  0
    0.0000    0.0000    0.0000 N   0  0  0  0  0  0  0  0  0  0  0  0
    0.0000    0.0000    0.0000 C   0  0  0  0  0  0  0  0  0  0  0  0
    0.0000    0.0000    0.0000 C   0  0  0  0  0  0  0  0  0  0  0  0
  1  2  1  0
  2  3  2  0
  2  4  2  0
  2  5  1  0
  5  6  2  0
  6  7  1  0
  7  8  2  0
  8  9  1  0
  7 10  1  0
 10 11  2  0
 10 12  2  0
 10 13  1  0
 13 14  2  0
 14 15  1  0
 15 16  2  0
 16 17  1  0
 17 18  1  0
 18 19  1  0
 19 20  1  0
 20 21  2  0
 21 22  1  0
 22 23  2  0
 23 24  1  0
 24 25  2  0
 16 26  1  0
 26 27  2  0
  9  5  1  0
 27 13  1  0
 25 20  1  0
M  END
>  <pIC50>  (41) 
8.1

>  <ChEMBL_ID>  (41) 
CHEMBL544129

>  <document_journal>  (41) 
J. Med. Chem.

>  <bao_endpoint>  (41) 
BAO_0000190

>  <potential_duplicate>  (41) 
False

>  <uo_units>  (41) 
UO_0000065

>  <canonical_smiles>  (41) 
Cl.NS(=O)(=O)c1cc(cs1)S(=O)(=O)c2ccc(CNCc3ccccn3)cc2

>  <parent_molecule_chembl_id>  (41) 
CHEMBL1192826

>  <assay_type>  (41) 
B

>  <src_id>  (41) 
1

>  <ligand_efficiency>  (41) 
{u'le': u'0.41', u'bei': u'19.12', u'sei': u'4.93', u'lle': u'6.49'}

>  <standard_flag>  (41) 
True

>  <molecule_chembl_id>  (41) 
CHEMBL544129

>  <target_organism>  (41) 
Homo sapiens

>  <standard_units>  (41) 
nM

>  <record_id>  (41) 
239334

>  <document_chembl_id>  (41) 
CHEMBL1125318

>  <bao_format>  (41) 
BAO_0000357

>  <data_validity_description>  (41) 
None

>  <activity_id>  (41) 
71812

>  <standard_type>  (41) 
IC50

>  <target_chembl_id>  (41) 
CHEMBL205

>  <data_validity_comment>  (41) 
None

>  <published_value>  (41) 
8E-9

>  <document_year>  (41) 
1992

>  <target_pref_name>  (41) 
Carbonic anhydrase II

>  <assay_chembl_id>  (41) 
CHEMBL656569

>  <standard_relation>  (41) 
=

>  <assay_description>  (41) 
Inhibition of human carbonic anhydrase II

>  <published_relation>  (41) 
=

>  <standard_value>  (41) 
8

>  <qudt_units>  (41) 
http://www.openphacts.org/units/Nanomolar

>  <target_tax_id>  (41) 
9606

>  <bao_label>  (41) 
single protein format

>  <published_units>  (41) 
M

>  <pchembl_value>  (41) 
8.1

>  <published_type>  (41) 
I50

>  <activity_comment>  (41) 
None

$$$$

     RDKit          

 23 24  0  0  0  0  0  0  0  0999 V2000
    0.0000    0.0000    0.0000 C   0  0  0  0  0  0  0  0  0  0  0  0
    0.0000    0.0000    0.0000 C   0  0  0  0  0  0  0  0  0  0  0  0
    0.0000    0.0000    0.0000 C   0  0  0  0  0  0  0  0  0  0  0  0
    0.0000    0.0000    0.0000 N   0  0  0  0  0  0  0  0  0  0  0  0
    0.0000    0.0000    0.0000 C   0  0  0  0  0  0  0  0  0  0  0  0
    0.0000    0.0000    0.0000 C   0  0  0  0  0  0  0  0  0  0  0  0
    0.0000    0.0000    0.0000 C   0  0  0  0  0  0  0  0  0  0  0  0
    0.0000    0.0000    0.0000 C   0  0  0  0  0  0  0  0  0  0  0  0
    0.0000    0.0000    0.0000 C   0  0  0  0  0  0  0  0  0  0  0  0
    0.0000    0.0000    0.0000 C   0  0  0  0  0  0  0  0  0  0  0  0
    0.0000    0.0000    0.0000 C   0  0  0  0  0  0  0  0  0  0  0  0
    0.0000    0.0000    0.0000 S   0  0  0  0  0  0  0  0  0  0  0  0
    0.0000    0.0000    0.0000 O   0  0  0  0  0  0  0  0  0  0  0  0
    0.0000    0.0000    0.0000 O   0  0  0  0  0  0  0  0  0  0  0  0
    0.0000    0.0000    0.0000 C   0  0  0  0  0  0  0  0  0  0  0  0
    0.0000    0.0000    0.0000 C   0  0  0  0  0  0  0  0  0  0  0  0
    0.0000    0.0000    0.0000 S   0  0  0  0  0  0  0  0  0  0  0  0
    0.0000    0.0000    0.0000 C   0  0  0  0  0  0  0  0  0  0  0  0
    0.0000    0.0000    0.0000 C   0  0  0  0  0  0  0  0  0  0  0  0
    0.0000    0.0000    0.0000 S   0  0  0  0  0  0  0  0  0  0  0  0
    0.0000    0.0000    0.0000 O   0  0  0  0  0  0  0  0  0  0  0  0
    0.0000    0.0000    0.0000 O   0  0  0  0  0  0  0  0  0  0  0  0
    0.0000    0.0000    0.0000 N   0  0  0  0  0  0  0  0  0  0  0  0
  1  2  1  0
  2  3  1  0
  2  4  1  0
  4  5  1  0
  5  6  1  0
  6  7  2  0
  7  8  1  0
  8  9  2  0
  9 10  1  0
 10 11  2  0
 10 12  1  0
 12 13  2  0
 12 14  2  0
 12 15  1  0
 15 16  2  0
 16 17  1  0
 17 18  1  0
 18 19  2  0
 18 20  1  0
 20 21  2  0
 20 22  2  0
 20 23  1  0
 11  6  1  0
 19 15  1  0
M  END
>  <pIC50>  (42) 
7.66

>  <ChEMBL_ID>  (42) 
CHEMBL554012

>  <document_journal>  (42) 
J. Med. Chem.

>  <bao_endpoint>  (42) 
BAO_0000190

>  <potential_duplicate>  (42) 
False

>  <uo_units>  (42) 
UO_0000065

>  <canonical_smiles>  (42) 
Cl.CC(C)NCc1cccc(c1)S(=O)(=O)c2csc(c2)S(=O)(=O)N

>  <parent_molecule_chembl_id>  (42) 
CHEMBL1195191

>  <assay_type>  (42) 
B

>  <src_id>  (42) 
1

>  <ligand_efficiency>  (42) 
{u'le': u'0.45', u'bei': u'20.45', u'sei': u'5.06', u'lle': u'5.97'}

>  <standard_flag>  (42) 
True

>  <molecule_chembl_id>  (42) 
CHEMBL554012

>  <target_organism>  (42) 
Homo sapiens

>  <standard_units>  (42) 
nM

>  <record_id>  (42) 
239329

>  <document_chembl_id>  (42) 
CHEMBL1125318

>  <bao_format>  (42) 
BAO_0000357

>  <data_validity_description>  (42) 
None

>  <activity_id>  (42) 
71819

>  <standard_type>  (42) 
IC50

>  <target_chembl_id>  (42) 
CHEMBL205

>  <data_validity_comment>  (42) 
None

>  <published_value>  (42) 
2.2E-8

>  <document_year>  (42) 
1992

>  <target_pref_name>  (42) 
Carbonic anhydrase II

>  <assay_chembl_id>  (42) 
CHEMBL656569

>  <standard_relation>  (42) 
=

>  <assay_description>  (42) 
Inhibition of human carbonic anhydrase II

>  <published_relation>  (42) 
=

>  <standard_value>  (42) 
22

>  <qudt_units>  (42) 
http://www.openphacts.org/units/Nanomolar

>  <target_tax_id>  (42) 
9606

>  <bao_label>  (42) 
single protein format

>  <published_units>  (42) 
M

>  <pchembl_value>  (42) 
7.66

>  <published_type>  (42) 
I50

>  <activity_comment>  (42) 
None

$$$$

     RDKit          

 18 19  0  0  0  0  0  0  0  0999 V2000
    0.0000    0.0000    0.0000 C   0  0  0  0  0  0  0  0  0  0  0  0
    0.0000    0.0000    0.0000 O   0  0  0  0  0  0  0  0  0  0  0  0
    0.0000    0.0000    0.0000 C   0  0  0  0  0  0  0  0  0  0  0  0
    0.0000    0.0000    0.0000 C   0  0  0  0  0  0  0  0  0  0  0  0
    0.0000    0.0000    0.0000 N   0  0  0  0  0  0  0  0  0  0  0  0
    0.0000    0.0000    0.0000 C   0  0  0  0  0  0  0  0  0  0  0  0
    0.0000    0.0000    0.0000 C   0  0  0  0  0  0  0  0  0  0  0  0
    0.0000    0.0000    0.0000 C   0  0  0  0  0  0  0  0  0  0  0  0
    0.0000    0.0000    0.0000 C   0  0  0  0  0  0  0  0  0  0  0  0
    0.0000    0.0000    0.0000 C   0  0  0  0  0  0  0  0  0  0  0  0
    0.0000    0.0000    0.0000 C   0  0  0  0  0  0  0  0  0  0  0  0
    0.0000    0.0000    0.0000 S   0  0  0  0  0  0  0  0  0  0  0  0
    0.0000    0.0000    0.0000 C   0  0  0  0  0  0  0  0  0  0  0  0
    0.0000    0.0000    0.0000 S   0  0  0  0  0  0  0  0  0  0  0  0
    0.0000    0.0000    0.0000 S   0  0  0  0  0  0  0  0  0  0  0  0
    0.0000    0.0000    0.0000 O   0  0  0  0  0  0  0  0  0  0  0  0
    0.0000    0.0000    0.0000 O   0  0  0  0  0  0  0  0  0  0  0  0
    0.0000    0.0000    0.0000 N   0  0  0  0  0  0  0  0  0  0  0  0
  1  2  1  0
  2  3  1  0
  3  4  1  0
  4  5  1  0
  5  6  1  0
  6  7  1  0
  7  8  2  0
  8  9  1  0
  9 10  1  0
 10 11  2  0
 11 12  1  0
 12 13  1  0
 13 14  1  0
 11 15  1  0
 15 16  2  0
 15 17  2  0
 15 18  1  0
 14  7  1  0
 13  9  2  0
M  END
>  <pIC50>  (43) 
8.3

>  <ChEMBL_ID>  (43) 
CHEMBL544030

>  <document_journal>  (43) 
J. Med. Chem.

>  <bao_endpoint>  (43) 
BAO_0000190

>  <potential_duplicate>  (43) 
False

>  <uo_units>  (43) 
UO_0000065

>  <canonical_smiles>  (43) 
Cl.COCCNCc1cc2cc(sc2s1)S(=O)(=O)N

>  <parent_molecule_chembl_id>  (43) 
CHEMBL1192742

>  <assay_type>  (43) 
B

>  <src_id>  (43) 
1

>  <ligand_efficiency>  (43) 
{u'le': u'0.63', u'bei': u'27.09', u'sei': u'5.68', u'lle': u'7.75'}

>  <standard_flag>  (43) 
True

>  <molecule_chembl_id>  (43) 
CHEMBL544030

>  <target_organism>  (43) 
Homo sapiens

>  <standard_units>  (43) 
nM

>  <record_id>  (43) 
88066

>  <document_chembl_id>  (43) 
CHEMBL1125927

>  <bao_format>  (43) 
BAO_0000357

>  <data_validity_description>  (43) 
None

>  <activity_id>  (43) 
73865

>  <standard_type>  (43) 
IC50

>  <target_chembl_id>  (43) 
CHEMBL205

>  <data_validity_comment>  (43) 
None

>  <published_value>  (43) 
5E-9

>  <document_year>  (43) 
1991

>  <target_pref_name>  (43) 
Carbonic anhydrase II

>  <assay_chembl_id>  (43) 
CHEMBL656579

>  <standard_relation>  (43) 
=

>  <assay_description>  (43) 
In vitro inhibitory activity against human carbonic anhydrase II

>  <published_relation>  (43) 
=

>  <standard_value>  (43) 
5

>  <qudt_units>  (43) 
http://www.openphacts.org/units/Nanomolar

>  <target_tax_id>  (43) 
9606

>  <bao_label>  (43) 
single protein format

>  <published_units>  (43) 
M

>  <pchembl_value>  (43) 
8.3

>  <published_type>  (43) 
I50

>  <activity_comment>  (43) 
None

$$$$

     RDKit          

 22 23  0  0  0  0  0  0  0  0999 V2000
    0.0000    0.0000    0.0000 C   0  0  0  0  0  0  0  0  0  0  0  0
    0.0000    0.0000    0.0000 O   0  0  0  0  0  0  0  0  0  0  0  0
    0.0000    0.0000    0.0000 C   0  0  0  0  0  0  0  0  0  0  0  0
    0.0000    0.0000    0.0000 C   0  0  0  0  0  0  0  0  0  0  0  0
    0.0000    0.0000    0.0000 N   0  0  0  0  0  0  0  0  0  0  0  0
    0.0000    0.0000    0.0000 C   0  0  0  0  0  0  0  0  0  0  0  0
    0.0000    0.0000    0.0000 C   0  0  0  0  0  0  0  0  0  0  0  0
    0.0000    0.0000    0.0000 O   0  0  0  0  0  0  0  0  0  0  0  0
    0.0000    0.0000    0.0000 C   0  0  0  0  0  0  0  0  0  0  0  0
    0.0000    0.0000    0.0000 C   0  0  0  0  0  0  0  0  0  0  0  0
    0.0000    0.0000    0.0000 C   0  0  0  0  0  0  0  0  0  0  0  0
    0.0000    0.0000    0.0000 C   0  0  0  0  0  0  0  0  0  0  0  0
    0.0000    0.0000    0.0000 C   0  0  0  0  0  0  0  0  0  0  0  0
    0.0000    0.0000    0.0000 C   0  0  0  0  0  0  0  0  0  0  0  0
    0.0000    0.0000    0.0000 C   0  0  0  0  0  0  0  0  0  0  0  0
    0.0000    0.0000    0.0000 S   0  0  0  0  0  0  0  0  0  0  0  0
    0.0000    0.0000    0.0000 C   0  0  0  0  0  0  0  0  0  0  0  0
    0.0000    0.0000    0.0000 S   0  0  0  0  0  0  0  0  0  0  0  0
    0.0000    0.0000    0.0000 S   0  0  0  0  0  0  0  0  0  0  0  0
    0.0000    0.0000    0.0000 O   0  0  0  0  0  0  0  0  0  0  0  0
    0.0000    0.0000    0.0000 O   0  0  0  0  0  0  0  0  0  0  0  0
    0.0000    0.0000    0.0000 N   0  0  0  0  0  0  0  0  0  0  0  0
  1  2  1  0
  2  3  1  0
  3  4  1  0
  4  5  1  0
  5  6  1  0
  6  7  1  0
  7  8  1  0
  8  9  1  0
  5 10  1  0
 10 11  1  0
 11 12  2  0
 12 13  1  0
 13 14  1  0
 14 15  2  0
 15 16  1  0
 16 17  1  0
 17 18  1  0
 15 19  1  0
 19 20  2  0
 19 21  2  0
 19 22  1  0
 18 11  1  0
 17 13  2  0
M  END
>  <pIC50>  (44) 
8.38

>  <ChEMBL_ID>  (44) 
CHEMBL554425

>  <document_journal>  (44) 
J. Med. Chem.

>  <bao_endpoint>  (44) 
BAO_0000190

>  <potential_duplicate>  (44) 
False

>  <uo_units>  (44) 
UO_0000065

>  <canonical_smiles>  (44) 
Cl.COCCN(CCOC)Cc1cc2cc(sc2s1)S(=O)(=O)N

>  <parent_molecule_chembl_id>  (44) 
CHEMBL1195377

>  <assay_type>  (44) 
B

>  <src_id>  (44) 
1

>  <ligand_efficiency>  (44) 
{u'le': u'0.52', u'bei': u'22.98', u'sei': u'5.71', u'lle': u'7.43'}

>  <standard_flag>  (44) 
True

>  <molecule_chembl_id>  (44) 
CHEMBL554425

>  <target_organism>  (44) 
Homo sapiens

>  <standard_units>  (44) 
nM

>  <record_id>  (44) 
88083

>  <document_chembl_id>  (44) 
CHEMBL1125927

>  <bao_format>  (44) 
BAO_0000357

>  <data_validity_description>  (44) 
None

>  <activity_id>  (44) 
73871

>  <standard_type>  (44) 
IC50

>  <target_chembl_id>  (44) 
CHEMBL205

>  <data_validity_comment>  (44) 
None

>  <published_value>  (44) 
4.2E-9

>  <document_year>  (44) 
1991

>  <target_pref_name>  (44) 
Carbonic anhydrase II

>  <assay_chembl_id>  (44) 
CHEMBL656579

>  <standard_relation>  (44) 
=

>  <assay_description>  (44) 
In vitro inhibitory activity against human carbonic anhydrase II

>  <published_relation>  (44) 
=

>  <standard_value>  (44) 
4.2

>  <qudt_units>  (44) 
http://www.openphacts.org/units/Nanomolar

>  <target_tax_id>  (44) 
9606

>  <bao_label>  (44) 
single protein format

>  <published_units>  (44) 
M

>  <pchembl_value>  (44) 
8.38

>  <published_type>  (44) 
I50

>  <activity_comment>  (44) 
None

$$$$

     RDKit          

 18 19  0  0  0  0  0  0  0  0999 V2000
    0.0000    0.0000    0.0000 C   0  0  0  0  0  0  0  0  0  0  0  0
    0.0000    0.0000    0.0000 C   0  0  0  0  0  0  0  0  0  0  0  0
    0.0000    0.0000    0.0000 C   0  0  0  0  0  0  0  0  0  0  0  0
    0.0000    0.0000    0.0000 C   0  0  0  0  0  0  0  0  0  0  0  0
    0.0000    0.0000    0.0000 N   0  0  0  0  0  0  0  0  0  0  0  0
    0.0000    0.0000    0.0000 C   0  0  0  0  0  0  0  0  0  0  0  0
    0.0000    0.0000    0.0000 C   0  0  0  0  0  0  0  0  0  0  0  0
    0.0000    0.0000    0.0000 C   0  0  0  0  0  0  0  0  0  0  0  0
    0.0000    0.0000    0.0000 C   0  0  0  0  0  0  0  0  0  0  0  0
    0.0000    0.0000    0.0000 S   0  0  0  0  0  0  0  0  0  0  0  0
    0.0000    0.0000    0.0000 C   0  0  0  0  0  0  0  0  0  0  0  0
    0.0000    0.0000    0.0000 C   0  0  0  0  0  0  0  0  0  0  0  0
    0.0000    0.0000    0.0000 C   0  0  0  0  0  0  0  0  0  0  0  0
    0.0000    0.0000    0.0000 S   0  0  0  0  0  0  0  0  0  0  0  0
    0.0000    0.0000    0.0000 S   0  0  0  0  0  0  0  0  0  0  0  0
    0.0000    0.0000    0.0000 O   0  0  0  0  0  0  0  0  0  0  0  0
    0.0000    0.0000    0.0000 O   0  0  0  0  0  0  0  0  0  0  0  0
    0.0000    0.0000    0.0000 N   0  0  0  0  0  0  0  0  0  0  0  0
  1  2  1  0
  2  3  1  0
  2  4  1  0
  4  5  1  0
  5  6  1  0
  6  7  1  0
  7  8  2  0
  8  9  1  0
  9 10  1  0
 10 11  1  0
 11 12  2  0
 12 13  1  0
 13 14  1  0
 11 15  1  0
 15 16  2  0
 15 17  2  0
 15 18  1  0
 14  7  1  0
 13  9  2  0
M  END
>  <pIC50>  (45) 
8.55

>  <ChEMBL_ID>  (45) 
CHEMBL543792

>  <document_journal>  (45) 
J. Med. Chem.

>  <bao_endpoint>  (45) 
BAO_0000190

>  <potential_duplicate>  (45) 
False

>  <uo_units>  (45) 
UO_0000065

>  <canonical_smiles>  (45) 
Cl.CC(C)CNCc1cc2sc(cc2s1)S(=O)(=O)N

>  <parent_molecule_chembl_id>  (45) 
CHEMBL1192541

>  <assay_type>  (45) 
B

>  <src_id>  (45) 
1

>  <ligand_efficiency>  (45) 
{u'le': u'0.65', u'bei': u'28.09', u'sei': u'6.24', u'lle': u'6.27'}

>  <standard_flag>  (45) 
True

>  <molecule_chembl_id>  (45) 
CHEMBL543792

>  <target_organism>  (45) 
Homo sapiens

>  <standard_units>  (45) 
nM

>  <record_id>  (45) 
88080

>  <document_chembl_id>  (45) 
CHEMBL1125927

>  <bao_format>  (45) 
BAO_0000357

>  <data_validity_description>  (45) 
None

>  <activity_id>  (45) 
73880

>  <standard_type>  (45) 
IC50

>  <target_chembl_id>  (45) 
CHEMBL205

>  <data_validity_comment>  (45) 
None

>  <published_value>  (45) 
2.8E-9

>  <document_year>  (45) 
1991

>  <target_pref_name>  (45) 
Carbonic anhydrase II

>  <assay_chembl_id>  (45) 
CHEMBL656579

>  <standard_relation>  (45) 
=

>  <assay_description>  (45) 
In vitro inhibitory activity against human carbonic anhydrase II

>  <published_relation>  (45) 
=

>  <standard_value>  (45) 
2.8

>  <qudt_units>  (45) 
http://www.openphacts.org/units/Nanomolar

>  <target_tax_id>  (45) 
9606

>  <bao_label>  (45) 
single protein format

>  <published_units>  (45) 
M

>  <pchembl_value>  (45) 
8.55

>  <published_type>  (45) 
I50

>  <activity_comment>  (45) 
None

$$$$

     RDKit          

 17 17  0  0  0  0  0  0  0  0999 V2000
    0.0000    0.0000    0.0000 N   0  0  0  0  0  0  0  0  0  0  0  0
    0.0000    0.0000    0.0000 S   0  0  0  0  0  0  0  0  0  0  0  0
    0.0000    0.0000    0.0000 O   0  0  0  0  0  0  0  0  0  0  0  0
    0.0000    0.0000    0.0000 O   0  0  0  0  0  0  0  0  0  0  0  0
    0.0000    0.0000    0.0000 C   0  0  0  0  0  0  0  0  0  0  0  0
    0.0000    0.0000    0.0000 C   0  0  0  0  0  0  0  0  0  0  0  0
    0.0000    0.0000    0.0000 C   0  0  0  0  0  0  0  0  0  0  0  0
    0.0000    0.0000    0.0000 C   0  0  0  0  0  0  0  0  0  0  0  0
    0.0000    0.0000    0.0000 S   0  0  0  0  0  0  0  0  0  0  0  0
    0.0000    0.0000    0.0000 C   0  0  0  0  0  0  0  0  0  0  0  0
    0.0000    0.0000    0.0000 C   0  0  0  0  0  0  0  0  0  0  0  0
    0.0000    0.0000    0.0000 C   0  0  0  0  0  0  0  0  0  0  0  0
    0.0000    0.0000    0.0000 C   0  0  0  0  0  0  0  0  0  0  0  0
    0.0000    0.0000    0.0000 O   0  0  0  0  0  0  0  0  0  0  0  0
    0.0000    0.0000    0.0000 C   0  0  0  0  0  0  0  0  0  0  0  0
    0.0000    0.0000    0.0000 F   0  0  0  0  0  0  0  0  0  0  0  0
    0.0000    0.0000    0.0000 C   0  0  0  0  0  0  0  0  0  0  0  0
  1  2  1  0
  2  3  2  0
  2  4  2  0
  2  5  1  0
  5  6  2  0
  6  7  1  0
  7  8  2  0
  8  9  1  0
  9 10  1  0
 10 11  1  0
 11 12  1  0
 12 13  1  0
 13 14  1  0
  8 15  1  0
 15 16  1  0
 15 17  2  0
 17  5  1  0
M  END
>  <pIC50>  (46) 
8.82

>  <ChEMBL_ID>  (46) 
CHEMBL104754

>  <document_journal>  (46) 
J. Med. Chem.

>  <bao_endpoint>  (46) 
BAO_0000190

>  <potential_duplicate>  (46) 
True

>  <uo_units>  (46) 
UO_0000065

>  <canonical_smiles>  (46) 
NS(=O)(=O)c1ccc(SCCCCO)c(F)c1

>  <parent_molecule_chembl_id>  (46) 
CHEMBL104754

>  <assay_type>  (46) 
B

>  <src_id>  (46) 
1

>  <ligand_efficiency>  (46) 
{u'le': u'0.71', u'bei': u'31.59', u'sei': u'7.74', u'lle': u'7.43'}

>  <standard_flag>  (46) 
True

>  <molecule_chembl_id>  (46) 
CHEMBL104754

>  <target_organism>  (46) 
Homo sapiens

>  <standard_units>  (46) 
nM

>  <record_id>  (46) 
227761

>  <document_chembl_id>  (46) 
CHEMBL1135542

>  <bao_format>  (46) 
BAO_0000357

>  <data_validity_description>  (46) 
None

>  <activity_id>  (46) 
76006

>  <standard_type>  (46) 
IC50

>  <target_chembl_id>  (46) 
CHEMBL205

>  <data_validity_comment>  (46) 
None

>  <published_value>  (46) 
1.5

>  <document_year>  (46) 
2002

>  <target_pref_name>  (46) 
Carbonic anhydrase II

>  <assay_chembl_id>  (46) 
CHEMBL657920

>  <standard_relation>  (46) 
=

>  <assay_description>  (46) 
Inhibitory activity against carbonic anhydrase II

>  <published_relation>  (46) 
=

>  <standard_value>  (46) 
1.5

>  <qudt_units>  (46) 
http://www.openphacts.org/units/Nanomolar

>  <target_tax_id>  (46) 
9606

>  <bao_label>  (46) 
single protein format

>  <published_units>  (46) 
nM

>  <pchembl_value>  (46) 
8.82

>  <published_type>  (46) 
IC50

>  <activity_comment>  (46) 
None

$$$$

     RDKit          

 23 24  0  0  0  0  0  0  0  0999 V2000
    0.0000    0.0000    0.0000 C   0  0  0  0  0  0  0  0  0  0  0  0
    0.0000    0.0000    0.0000 N   0  0  0  0  0  0  0  0  0  0  0  0
    0.0000    0.0000    0.0000 C   0  0  0  0  0  0  0  0  0  0  0  0
    0.0000    0.0000    0.0000 C   0  0  0  0  0  0  0  0  0  0  0  0
    0.0000    0.0000    0.0000 C   0  0  0  0  0  0  0  0  0  0  0  0
    0.0000    0.0000    0.0000 C   0  0  0  0  0  0  0  0  0  0  0  0
    0.0000    0.0000    0.0000 C   0  0  0  0  0  0  0  0  0  0  0  0
    0.0000    0.0000    0.0000 C   0  0  0  0  0  0  0  0  0  0  0  0
    0.0000    0.0000    0.0000 C   0  0  0  0  0  0  0  0  0  0  0  0
    0.0000    0.0000    0.0000 C   0  0  0  0  0  0  0  0  0  0  0  0
    0.0000    0.0000    0.0000 O   0  0  0  0  0  0  0  0  0  0  0  0
    0.0000    0.0000    0.0000 S   0  0  0  0  0  0  0  0  0  0  0  0
    0.0000    0.0000    0.0000 O   0  0  0  0  0  0  0  0  0  0  0  0
    0.0000    0.0000    0.0000 O   0  0  0  0  0  0  0  0  0  0  0  0
    0.0000    0.0000    0.0000 C   0  0  0  0  0  0  0  0  0  0  0  0
    0.0000    0.0000    0.0000 C   0  0  0  0  0  0  0  0  0  0  0  0
    0.0000    0.0000    0.0000 C   0  0  0  0  0  0  0  0  0  0  0  0
    0.0000    0.0000    0.0000 C   0  0  0  0  0  0  0  0  0  0  0  0
    0.0000    0.0000    0.0000 S   0  0  0  0  0  0  0  0  0  0  0  0
    0.0000    0.0000    0.0000 S   0  0  0  0  0  0  0  0  0  0  0  0
    0.0000    0.0000    0.0000 O   0  0  0  0  0  0  0  0  0  0  0  0
    0.0000    0.0000    0.0000 O   0  0  0  0  0  0  0  0  0  0  0  0
    0.0000    0.0000    0.0000 N   0  0  0  0  0  0  0  0  0  0  0  0
  1  2  1  0
  2  3  1  0
  2  4  1  0
  4  5  1  0
  5  6  2  0
  6  7  1  0
  7  8  2  0
  8  9  1  0
  9 10  2  0
 10 11  1  0
  7 12  1  0
 12 13  2  0
 12 14  2  0
 12 15  1  0
 15 16  2  0
 16 17  1  0
 17 18  2  0
 18 19  1  0
 18 20  1  0
 20 21  2  0
 20 22  2  0
 20 23  1  0
 10  5  1  0
 19 15  1  0
M  END
>  <pIC50>  (47) 
9.16

>  <ChEMBL_ID>  (47) 
CHEMBL69114

>  <document_journal>  (47) 
J. Med. Chem.

>  <bao_endpoint>  (47) 
BAO_0000190

>  <potential_duplicate>  (47) 
False

>  <uo_units>  (47) 
UO_0000065

>  <canonical_smiles>  (47) 
CN(C)Cc1cc(ccc1O)S(=O)(=O)c2ccc(s2)S(=O)(=O)N

>  <parent_molecule_chembl_id>  (47) 
CHEMBL69114

>  <assay_type>  (47) 
B

>  <src_id>  (47) 
1

>  <ligand_efficiency>  (47) 
{u'le': u'0.54', u'bei': u'24.32', u'sei': u'5.62', u'lle': u'7.77'}

>  <standard_flag>  (47) 
True

>  <molecule_chembl_id>  (47) 
CHEMBL69114

>  <target_organism>  (47) 
Homo sapiens

>  <standard_units>  (47) 
nM

>  <record_id>  (47) 
227781

>  <document_chembl_id>  (47) 
CHEMBL1135542

>  <bao_format>  (47) 
BAO_0000357

>  <data_validity_description>  (47) 
None

>  <activity_id>  (47) 
76010

>  <standard_type>  (47) 
IC50

>  <target_chembl_id>  (47) 
CHEMBL205

>  <data_validity_comment>  (47) 
None

>  <published_value>  (47) 
0.7

>  <document_year>  (47) 
2002

>  <target_pref_name>  (47) 
Carbonic anhydrase II

>  <assay_chembl_id>  (47) 
CHEMBL657920

>  <standard_relation>  (47) 
=

>  <assay_description>  (47) 
Inhibitory activity against carbonic anhydrase II

>  <published_relation>  (47) 
=

>  <standard_value>  (47) 
0.7

>  <qudt_units>  (47) 
http://www.openphacts.org/units/Nanomolar

>  <target_tax_id>  (47) 
9606

>  <bao_label>  (47) 
single protein format

>  <published_units>  (47) 
nM

>  <pchembl_value>  (47) 
9.16

>  <published_type>  (47) 
IC50

>  <activity_comment>  (47) 
None

$$$$

     RDKit          

 19 21  0  0  0  0  0  0  0  0999 V2000
    0.0000    0.0000    0.0000 N   0  0  0  0  0  0  0  0  0  0  0  0
    0.0000    0.0000    0.0000 S   0  0  0  0  0  0  0  0  0  0  0  0
    0.0000    0.0000    0.0000 O   0  0  0  0  0  0  0  0  0  0  0  0
    0.0000    0.0000    0.0000 O   0  0  0  0  0  0  0  0  0  0  0  0
    0.0000    0.0000    0.0000 C   0  0  0  0  0  0  0  0  0  0  0  0
    0.0000    0.0000    0.0000 C   0  0  0  0  0  0  0  0  0  0  0  0
    0.0000    0.0000    0.0000 C   0  0  0  0  0  0  0  0  0  0  0  0
    0.0000    0.0000    0.0000 C   0  0  0  0  0  0  0  0  0  0  0  0
    0.0000    0.0000    0.0000 C   0  0  0  0  0  0  0  0  0  0  0  0
    0.0000    0.0000    0.0000 C   0  0  0  0  0  0  0  0  0  0  0  0
    0.0000    0.0000    0.0000 N   0  0  0  0  0  0  0  0  0  0  0  0
    0.0000    0.0000    0.0000 C   0  0  0  0  0  0  0  0  0  0  0  0
    0.0000    0.0000    0.0000 C   0  0  0  0  0  0  0  0  0  0  0  0
    0.0000    0.0000    0.0000 O   0  0  0  0  0  0  0  0  0  0  0  0
    0.0000    0.0000    0.0000 C   0  0  0  0  0  0  0  0  0  0  0  0
    0.0000    0.0000    0.0000 C   0  0  0  0  0  0  0  0  0  0  0  0
    0.0000    0.0000    0.0000 S   0  0  0  0  0  0  0  0  0  0  0  0
    0.0000    0.0000    0.0000 C   0  0  0  0  0  0  0  0  0  0  0  0
    0.0000    0.0000    0.0000 S   0  0  0  0  0  0  0  0  0  0  0  0
  1  2  1  0
  2  3  2  0
  2  4  2  0
  2  5  1  0
  5  6  2  0
  6  7  1  0
  7  8  1  0
  8  9  2  0
  9 10  1  0
 10 11  1  0
 11 12  1  0
 12 13  1  0
 13 14  1  0
 14 15  1  0
 15 16  1  0
  9 17  1  0
 17 18  1  0
 18 19  1  0
 19  5  1  0
 18  7  2  0
 16 11  1  0
M  END
>  <pIC50>  (48) 
8.52

>  <ChEMBL_ID>  (48) 
CHEMBL540026

>  <document_journal>  (48) 
J. Med. Chem.

>  <bao_endpoint>  (48) 
BAO_0000190

>  <potential_duplicate>  (48) 
False

>  <uo_units>  (48) 
UO_0000065

>  <canonical_smiles>  (48) 
Cl.NS(=O)(=O)c1cc2cc(CN3CCOCC3)sc2s1

>  <parent_molecule_chembl_id>  (48) 
CHEMBL1190030

>  <assay_type>  (48) 
B

>  <src_id>  (48) 
1

>  <ligand_efficiency>  (48) 
{u'le': u'0.61', u'bei': u'26.76', u'sei': u'6.2', u'lle': u'7.62'}

>  <standard_flag>  (48) 
True

>  <molecule_chembl_id>  (48) 
CHEMBL540026

>  <target_organism>  (48) 
Homo sapiens

>  <standard_units>  (48) 
nM

>  <record_id>  (48) 
88068

>  <document_chembl_id>  (48) 
CHEMBL1125927

>  <bao_format>  (48) 
BAO_0000357

>  <data_validity_description>  (48) 
None

>  <activity_id>  (48) 
77172

>  <standard_type>  (48) 
IC50

>  <target_chembl_id>  (48) 
CHEMBL205

>  <data_validity_comment>  (48) 
None

>  <published_value>  (48) 
3E-9

>  <document_year>  (48) 
1991

>  <target_pref_name>  (48) 
Carbonic anhydrase II

>  <assay_chembl_id>  (48) 
CHEMBL656579

>  <standard_relation>  (48) 
=

>  <assay_description>  (48) 
In vitro inhibitory activity against human carbonic anhydrase II

>  <published_relation>  (48) 
=

>  <standard_value>  (48) 
3

>  <qudt_units>  (48) 
http://www.openphacts.org/units/Nanomolar

>  <target_tax_id>  (48) 
9606

>  <bao_label>  (48) 
single protein format

>  <published_units>  (48) 
M

>  <pchembl_value>  (48) 
8.52

>  <published_type>  (48) 
I50

>  <activity_comment>  (48) 
None

$$$$

     RDKit          

 22 23  0  0  0  0  0  0  0  0999 V2000
    0.0000    0.0000    0.0000 C   0  0  0  0  0  0  0  0  0  0  0  0
    0.0000    0.0000    0.0000 O   0  0  0  0  0  0  0  0  0  0  0  0
    0.0000    0.0000    0.0000 C   0  0  0  0  0  0  0  0  0  0  0  0
    0.0000    0.0000    0.0000 C   0  0  0  0  0  0  0  0  0  0  0  0
    0.0000    0.0000    0.0000 O   0  0  0  0  0  0  0  0  0  0  0  0
    0.0000    0.0000    0.0000 C   0  0  0  0  0  0  0  0  0  0  0  0
    0.0000    0.0000    0.0000 C   0  0  0  0  0  0  0  0  0  0  0  0
    0.0000    0.0000    0.0000 N   0  0  0  0  0  0  0  0  0  0  0  0
    0.0000    0.0000    0.0000 C   0  0  0  0  0  0  0  0  0  0  0  0
    0.0000    0.0000    0.0000 C   0  0  0  0  0  0  0  0  0  0  0  0
    0.0000    0.0000    0.0000 C   0  0  0  0  0  0  0  0  0  0  0  0
    0.0000    0.0000    0.0000 C   0  0  0  0  0  0  0  0  0  0  0  0
    0.0000    0.0000    0.0000 C   0  0  0  0  0  0  0  0  0  0  0  0
    0.0000    0.0000    0.0000 C   0  0  0  0  0  0  0  0  0  0  0  0
    0.0000    0.0000    0.0000 C   0  0  0  0  0  0  0  0  0  0  0  0
    0.0000    0.0000    0.0000 S   0  0  0  0  0  0  0  0  0  0  0  0
    0.0000    0.0000    0.0000 C   0  0  0  0  0  0  0  0  0  0  0  0
    0.0000    0.0000    0.0000 S   0  0  0  0  0  0  0  0  0  0  0  0
    0.0000    0.0000    0.0000 S   0  0  0  0  0  0  0  0  0  0  0  0
    0.0000    0.0000    0.0000 O   0  0  0  0  0  0  0  0  0  0  0  0
    0.0000    0.0000    0.0000 O   0  0  0  0  0  0  0  0  0  0  0  0
    0.0000    0.0000    0.0000 N   0  0  0  0  0  0  0  0  0  0  0  0
  1  2  1  0
  2  3  1  0
  3  4  1  0
  4  5  1  0
  5  6  1  0
  6  7  1  0
  7  8  1  0
  8  9  1  0
  9 10  1  0
  9 11  1  0
 11 12  2  0
 12 13  1  0
 13 14  1  0
 14 15  2  0
 15 16  1  0
 16 17  1  0
 17 18  1  0
 15 19  1  0
 19 20  2  0
 19 21  2  0
 19 22  1  0
 18 11  1  0
 17 13  2  0
M  END
>  <pIC50>  (49) 
9.16

>  <ChEMBL_ID>  (49) 
CHEMBL553832

>  <document_journal>  (49) 
J. Med. Chem.

>  <bao_endpoint>  (49) 
BAO_0000190

>  <potential_duplicate>  (49) 
False

>  <uo_units>  (49) 
UO_0000065

>  <canonical_smiles>  (49) 
Cl.COCCOCCNC(C)c1cc2cc(sc2s1)S(=O)(=O)N

>  <parent_molecule_chembl_id>  (49) 
CHEMBL1195095

>  <assay_type>  (49) 
B

>  <src_id>  (49) 
1

>  <ligand_efficiency>  (49) 
{u'le': u'0.57', u'bei': u'25.12', u'sei': u'5.89', u'lle': u'8.25'}

>  <standard_flag>  (49) 
True

>  <molecule_chembl_id>  (49) 
CHEMBL553832

>  <target_organism>  (49) 
Homo sapiens

>  <standard_units>  (49) 
nM

>  <record_id>  (49) 
88076

>  <document_chembl_id>  (49) 
CHEMBL1125927

>  <bao_format>  (49) 
BAO_0000357

>  <data_validity_description>  (49) 
None

>  <activity_id>  (49) 
77178

>  <standard_type>  (49) 
IC50

>  <target_chembl_id>  (49) 
CHEMBL205

>  <data_validity_comment>  (49) 
None

>  <published_value>  (49) 
7E-10

>  <document_year>  (49) 
1991

>  <target_pref_name>  (49) 
Carbonic anhydrase II

>  <assay_chembl_id>  (49) 
CHEMBL842026

>  <standard_relation>  (49) 
=

>  <assay_description>  (49) 
The compound was tested for in vitro inhibitory activity against human carbonic anhydrase II

>  <published_relation>  (49) 
=

>  <standard_value>  (49) 
0.7

>  <qudt_units>  (49) 
http://www.openphacts.org/units/Nanomolar

>  <target_tax_id>  (49) 
9606

>  <bao_label>  (49) 
single protein format

>  <published_units>  (49) 
M

>  <pchembl_value>  (49) 
9.16

>  <published_type>  (49) 
I50

>  <activity_comment>  (49) 
None

$$$$

     RDKit          

 15 16  0  0  0  0  0  0  0  0999 V2000
    0.0000    0.0000    0.0000 C   0  0  0  0  0  0  0  0  0  0  0  0
    0.0000    0.0000    0.0000 N   0  0  0  0  0  0  0  0  0  0  0  0
    0.0000    0.0000    0.0000 C   0  0  0  0  0  0  0  0  0  0  0  0
    0.0000    0.0000    0.0000 C   0  0  0  0  0  0  0  0  0  0  0  0
    0.0000    0.0000    0.0000 C   0  0  0  0  0  0  0  0  0  0  0  0
    0.0000    0.0000    0.0000 C   0  0  0  0  0  0  0  0  0  0  0  0
    0.0000    0.0000    0.0000 C   0  0  0  0  0  0  0  0  0  0  0  0
    0.0000    0.0000    0.0000 C   0  0  0  0  0  0  0  0  0  0  0  0
    0.0000    0.0000    0.0000 S   0  0  0  0  0  0  0  0  0  0  0  0
    0.0000    0.0000    0.0000 C   0  0  0  0  0  0  0  0  0  0  0  0
    0.0000    0.0000    0.0000 S   0  0  0  0  0  0  0  0  0  0  0  0
    0.0000    0.0000    0.0000 S   0  0  0  0  0  0  0  0  0  0  0  0
    0.0000    0.0000    0.0000 O   0  0  0  0  0  0  0  0  0  0  0  0
    0.0000    0.0000    0.0000 O   0  0  0  0  0  0  0  0  0  0  0  0
    0.0000    0.0000    0.0000 N   0  0  0  0  0  0  0  0  0  0  0  0
  1  2  1  0
  2  3  1  0
  3  4  1  0
  4  5  2  0
  5  6  1  0
  6  7  1  0
  7  8  2  0
  8  9  1  0
  9 10  1  0
 10 11  1  0
  8 12  1  0
 12 13  2  0
 12 14  2  0
 12 15  1  0
 11  4  1  0
 10  6  2  0
M  END
>  <pIC50>  (50) 
8.52

>  <ChEMBL_ID>  (50) 
CHEMBL555385

>  <document_journal>  (50) 
J. Med. Chem.

>  <bao_endpoint>  (50) 
BAO_0000190

>  <potential_duplicate>  (50) 
False

>  <uo_units>  (50) 
UO_0000065

>  <canonical_smiles>  (50) 
Cl.CNCc1cc2cc(sc2s1)S(=O)(=O)N

>  <parent_molecule_chembl_id>  (50) 
CHEMBL1195808

>  <assay_type>  (50) 
B

>  <src_id>  (50) 
1

>  <ligand_efficiency>  (50) 
{u'le': u'0.78', u'bei': u'32.48', u'sei': u'6.22', u'lle': u'7.84'}

>  <standard_flag>  (50) 
True

>  <molecule_chembl_id>  (50) 
CHEMBL555385

>  <target_organism>  (50) 
Homo sapiens

>  <standard_units>  (50) 
nM

>  <record_id>  (50) 
88099

>  <document_chembl_id>  (50) 
CHEMBL1125927

>  <bao_format>  (50) 
BAO_0000357

>  <data_validity_description>  (50) 
None

>  <activity_id>  (50) 
79428

>  <standard_type>  (50) 
IC50

>  <target_chembl_id>  (50) 
CHEMBL205

>  <data_validity_comment>  (50) 
None

>  <published_value>  (50) 
3E-9

>  <document_year>  (50) 
1991

>  <target_pref_name>  (50) 
Carbonic anhydrase II

>  <assay_chembl_id>  (50) 
CHEMBL656579

>  <standard_relation>  (50) 
=

>  <assay_description>  (50) 
In vitro inhibitory activity against human carbonic anhydrase II

>  <published_relation>  (50) 
=

>  <standard_value>  (50) 
3

>  <qudt_units>  (50) 
http://www.openphacts.org/units/Nanomolar

>  <target_tax_id>  (50) 
9606

>  <bao_label>  (50) 
single protein format

>  <published_units>  (50) 
M

>  <pchembl_value>  (50) 
8.52

>  <published_type>  (50) 
I50

>  <activity_comment>  (50) 
None

$$$$

     RDKit          

 13 13  0  0  0  0  0  0  0  0999 V2000
    0.0000    0.0000    0.0000 C   0  0  0  0  0  0  0  0  0  0  0  0
    0.0000    0.0000    0.0000 C   0  0  0  0  0  0  0  0  0  0  0  0
    0.0000    0.0000    0.0000 O   0  0  0  0  0  0  0  0  0  0  0  0
    0.0000    0.0000    0.0000 N   0  0  0  0  0  0  0  0  0  0  0  0
    0.0000    0.0000    0.0000 C   0  0  0  0  0  0  0  0  0  0  0  0
    0.0000    0.0000    0.0000 N   0  0  0  0  0  0  0  0  0  0  0  0
    0.0000    0.0000    0.0000 N   0  0  0  0  0  0  0  0  0  0  0  0
    0.0000    0.0000    0.0000 C   0  0  0  0  0  0  0  0  0  0  0  0
    0.0000    0.0000    0.0000 S   0  0  0  0  0  0  0  0  0  0  0  0
    0.0000    0.0000    0.0000 S   0  0  0  0  0  0  0  0  0  0  0  0
    0.0000    0.0000    0.0000 O   0  0  0  0  0  0  0  0  0  0  0  0
    0.0000    0.0000    0.0000 O   0  0  0  0  0  0  0  0  0  0  0  0
    0.0000    0.0000    0.0000 N   0  0  0  0  0  0  0  0  0  0  0  0
  1  2  1  0
  2  3  2  0
  2  4  1  0
  4  5  1  0
  5  6  2  0
  6  7  1  0
  7  8  2  0
  8  9  1  0
  8 10  1  0
 10 11  2  0
 10 12  2  0
 10 13  1  0
  9  5  1  0
M  END
>  <pIC50>  (51) 
7.15339285714

>  <ChEMBL_ID>  (51) 
CHEMBL20

>  <document_journal>  (51) 
J. Med. Chem.

>  <bao_endpoint>  (51) 
BAO_0000190

>  <potential_duplicate>  (51) 
True

>  <uo_units>  (51) 
UO_0000065

>  <canonical_smiles>  (51) 
CC(=O)Nc1nnc(s1)S(=O)(=O)N

>  <parent_molecule_chembl_id>  (51) 
CHEMBL20

>  <assay_type>  (51) 
F

>  <src_id>  (51) 
1

>  <ligand_efficiency>  (51) 
None

>  <standard_flag>  (51) 
True

>  <molecule_chembl_id>  (51) 
CHEMBL20

>  <target_organism>  (51) 
Homo sapiens

>  <standard_units>  (51) 
nM

>  <record_id>  (51) 
227757

>  <document_chembl_id>  (51) 
CHEMBL1135542

>  <bao_format>  (51) 
BAO_0000019

>  <data_validity_description>  (51) 
None

>  <activity_id>  (51) 
80505

>  <standard_type>  (51) 
IC50

>  <target_chembl_id>  (51) 
CHEMBL205

>  <data_validity_comment>  (51) 
None

>  <published_value>  (51) 
3.4

>  <document_year>  (51) 
2002

>  <target_pref_name>  (51) 
Carbonic anhydrase II

>  <assay_chembl_id>  (51) 
CHEMBL657921

>  <standard_relation>  (51) 
=

>  <assay_description>  (51) 
Inhibitory activity towards Carbonic anhydrase II

>  <published_relation>  (51) 
=

>  <standard_value>  (51) 
3.4

>  <qudt_units>  (51) 
http://www.openphacts.org/units/Nanomolar

>  <target_tax_id>  (51) 
9606

>  <bao_label>  (51) 
assay format

>  <published_units>  (51) 
nM

>  <pchembl_value>  (51) 
8.47

>  <published_type>  (51) 
IC50

>  <activity_comment>  (51) 
None

$$$$

     RDKit          

 20 21  0  0  0  0  0  0  0  0999 V2000
    0.0000    0.0000    0.0000 N   0  0  0  0  0  0  0  0  0  0  0  0
    0.0000    0.0000    0.0000 S   0  0  0  0  0  0  0  0  0  0  0  0
    0.0000    0.0000    0.0000 O   0  0  0  0  0  0  0  0  0  0  0  0
    0.0000    0.0000    0.0000 O   0  0  0  0  0  0  0  0  0  0  0  0
    0.0000    0.0000    0.0000 C   0  0  0  0  0  0  0  0  0  0  0  0
    0.0000    0.0000    0.0000 C   0  0  0  0  0  0  0  0  0  0  0  0
    0.0000    0.0000    0.0000 C   0  0  0  0  0  0  0  0  0  0  0  0
    0.0000    0.0000    0.0000 C   0  0  0  0  0  0  0  0  0  0  0  0
    0.0000    0.0000    0.0000 C   0  0  0  0  0  0  0  0  0  0  0  0
    0.0000    0.0000    0.0000 C   0  0  0  0  0  0  0  0  0  0  0  0
    0.0000    0.0000    0.0000 N   0  0  0  0  0  0  0  0  0  0  0  0
    0.0000    0.0000    0.0000 C   0  0  0  0  0  0  0  0  0  0  0  0
    0.0000    0.0000    0.0000 C   0  0  0  0  0  0  0  0  0  0  0  0
    0.0000    0.0000    0.0000 O   0  0  0  0  0  0  0  0  0  0  0  0
    0.0000    0.0000    0.0000 C   0  0  0  0  0  0  0  0  0  0  0  0
    0.0000    0.0000    0.0000 C   0  0  0  0  0  0  0  0  0  0  0  0
    0.0000    0.0000    0.0000 O   0  0  0  0  0  0  0  0  0  0  0  0
    0.0000    0.0000    0.0000 S   0  0  0  0  0  0  0  0  0  0  0  0
    0.0000    0.0000    0.0000 C   0  0  0  0  0  0  0  0  0  0  0  0
    0.0000    0.0000    0.0000 S   0  0  0  0  0  0  0  0  0  0  0  0
  1  2  1  0
  2  3  2  0
  2  4  2  0
  2  5  1  0
  5  6  2  0
  6  7  1  0
  7  8  1  0
  8  9  2  0
  9 10  1  0
 10 11  1  0
 11 12  1  0
 12 13  1  0
 13 14  1  0
 11 15  1  0
 15 16  1  0
 16 17  1  0
  9 18  1  0
 18 19  1  0
 19 20  1  0
 20  5  1  0
 19  7  2  0
M  END
>  <pIC50>  (52) 
8.64

>  <ChEMBL_ID>  (52) 
CHEMBL554042

>  <document_journal>  (52) 
J. Med. Chem.

>  <bao_endpoint>  (52) 
BAO_0000190

>  <potential_duplicate>  (52) 
False

>  <uo_units>  (52) 
UO_0000065

>  <canonical_smiles>  (52) 
Cl.NS(=O)(=O)c1cc2cc(CN(CCO)CCO)sc2s1

>  <parent_molecule_chembl_id>  (52) 
CHEMBL1195211

>  <assay_type>  (52) 
B

>  <src_id>  (52) 
1

>  <ligand_efficiency>  (52) 
{u'le': u'0.59', u'bei': u'25.69', u'sei': u'5.12', u'lle': u'8.51'}

>  <standard_flag>  (52) 
True

>  <molecule_chembl_id>  (52) 
CHEMBL554042

>  <target_organism>  (52) 
Homo sapiens

>  <standard_units>  (52) 
nM

>  <record_id>  (52) 
88081

>  <document_chembl_id>  (52) 
CHEMBL1125927

>  <bao_format>  (52) 
BAO_0000357

>  <data_validity_description>  (52) 
None

>  <activity_id>  (52) 
80601

>  <standard_type>  (52) 
IC50

>  <target_chembl_id>  (52) 
CHEMBL205

>  <data_validity_comment>  (52) 
None

>  <published_value>  (52) 
2.27E-9

>  <document_year>  (52) 
1991

>  <target_pref_name>  (52) 
Carbonic anhydrase II

>  <assay_chembl_id>  (52) 
CHEMBL656579

>  <standard_relation>  (52) 
=

>  <assay_description>  (52) 
In vitro inhibitory activity against human carbonic anhydrase II

>  <published_relation>  (52) 
=

>  <standard_value>  (52) 
2.27

>  <qudt_units>  (52) 
http://www.openphacts.org/units/Nanomolar

>  <target_tax_id>  (52) 
9606

>  <bao_label>  (52) 
single protein format

>  <published_units>  (52) 
M

>  <pchembl_value>  (52) 
8.64

>  <published_type>  (52) 
I50

>  <activity_comment>  (52) 
None

$$$$

     RDKit          

 15 16  0  0  0  0  0  0  0  0999 V2000
    0.0000    0.0000    0.0000 C   0  0  0  0  0  0  0  0  0  0  0  0
    0.0000    0.0000    0.0000 N   0  0  0  0  0  0  0  0  0  0  0  0
    0.0000    0.0000    0.0000 C   0  0  0  0  0  0  0  0  0  0  0  0
    0.0000    0.0000    0.0000 C   0  0  0  0  0  0  0  0  0  0  0  0
    0.0000    0.0000    0.0000 C   0  0  0  0  0  0  0  0  0  0  0  0
    0.0000    0.0000    0.0000 C   0  0  0  0  0  0  0  0  0  0  0  0
    0.0000    0.0000    0.0000 S   0  0  0  0  0  0  0  0  0  0  0  0
    0.0000    0.0000    0.0000 C   0  0  0  0  0  0  0  0  0  0  0  0
    0.0000    0.0000    0.0000 C   0  0  0  0  0  0  0  0  0  0  0  0
    0.0000    0.0000    0.0000 C   0  0  0  0  0  0  0  0  0  0  0  0
    0.0000    0.0000    0.0000 S   0  0  0  0  0  0  0  0  0  0  0  0
    0.0000    0.0000    0.0000 S   0  0  0  0  0  0  0  0  0  0  0  0
    0.0000    0.0000    0.0000 O   0  0  0  0  0  0  0  0  0  0  0  0
    0.0000    0.0000    0.0000 O   0  0  0  0  0  0  0  0  0  0  0  0
    0.0000    0.0000    0.0000 N   0  0  0  0  0  0  0  0  0  0  0  0
  1  2  1  0
  2  3  1  0
  3  4  1  0
  4  5  2  0
  5  6  1  0
  6  7  1  0
  7  8  1  0
  8  9  2  0
  9 10  1  0
 10 11  1  0
  8 12  1  0
 12 13  2  0
 12 14  2  0
 12 15  1  0
 11  4  1  0
 10  6  2  0
M  END
>  <pIC50>  (53) 
8.5

>  <ChEMBL_ID>  (53) 
CHEMBL552892

>  <document_journal>  (53) 
J. Med. Chem.

>  <bao_endpoint>  (53) 
BAO_0000190

>  <potential_duplicate>  (53) 
False

>  <uo_units>  (53) 
UO_0000065

>  <canonical_smiles>  (53) 
Cl.CNCc1cc2sc(cc2s1)S(=O)(=O)N

>  <parent_molecule_chembl_id>  (53) 
CHEMBL1194580

>  <assay_type>  (53) 
B

>  <src_id>  (53) 
1

>  <ligand_efficiency>  (53) 
{u'le': u'0.77', u'bei': u'32.38', u'sei': u'6.2', u'lle': u'7.4'}

>  <standard_flag>  (53) 
True

>  <molecule_chembl_id>  (53) 
CHEMBL552892

>  <target_organism>  (53) 
Homo sapiens

>  <standard_units>  (53) 
nM

>  <record_id>  (53) 
88079

>  <document_chembl_id>  (53) 
CHEMBL1125927

>  <bao_format>  (53) 
BAO_0000357

>  <data_validity_description>  (53) 
None

>  <activity_id>  (53) 
80607

>  <standard_type>  (53) 
IC50

>  <target_chembl_id>  (53) 
CHEMBL205

>  <data_validity_comment>  (53) 
None

>  <published_value>  (53) 
3.2E-9

>  <document_year>  (53) 
1991

>  <target_pref_name>  (53) 
Carbonic anhydrase II

>  <assay_chembl_id>  (53) 
CHEMBL656579

>  <standard_relation>  (53) 
=

>  <assay_description>  (53) 
In vitro inhibitory activity against human carbonic anhydrase II

>  <published_relation>  (53) 
=

>  <standard_value>  (53) 
3.2

>  <qudt_units>  (53) 
http://www.openphacts.org/units/Nanomolar

>  <target_tax_id>  (53) 
9606

>  <bao_label>  (53) 
single protein format

>  <published_units>  (53) 
M

>  <pchembl_value>  (53) 
8.5

>  <published_type>  (53) 
I50

>  <activity_comment>  (53) 
None

$$$$

     RDKit          

 17 18  0  0  0  0  0  0  0  0999 V2000
    0.0000    0.0000    0.0000 N   0  0  0  0  0  0  0  0  0  0  0  0
    0.0000    0.0000    0.0000 S   0  0  0  0  0  0  0  0  0  0  0  0
    0.0000    0.0000    0.0000 O   0  0  0  0  0  0  0  0  0  0  0  0
    0.0000    0.0000    0.0000 O   0  0  0  0  0  0  0  0  0  0  0  0
    0.0000    0.0000    0.0000 C   0  0  0  0  0  0  0  0  0  0  0  0
    0.0000    0.0000    0.0000 C   0  0  0  0  0  0  0  0  0  0  0  0
    0.0000    0.0000    0.0000 C   0  0  0  0  0  0  0  0  0  0  0  0
    0.0000    0.0000    0.0000 C   0  0  0  0  0  0  0  0  0  0  0  0
    0.0000    0.0000    0.0000 C   0  0  0  0  0  0  0  0  0  0  0  0
    0.0000    0.0000    0.0000 C   0  0  0  0  0  0  0  0  0  0  0  0
    0.0000    0.0000    0.0000 N   0  0  0  0  0  0  0  0  0  0  0  0
    0.0000    0.0000    0.0000 C   0  0  0  0  0  0  0  0  0  0  0  0
    0.0000    0.0000    0.0000 C   0  0  0  0  0  0  0  0  0  0  0  0
    0.0000    0.0000    0.0000 O   0  0  0  0  0  0  0  0  0  0  0  0
    0.0000    0.0000    0.0000 S   0  0  0  0  0  0  0  0  0  0  0  0
    0.0000    0.0000    0.0000 C   0  0  0  0  0  0  0  0  0  0  0  0
    0.0000    0.0000    0.0000 S   0  0  0  0  0  0  0  0  0  0  0  0
  1  2  1  0
  2  3  2  0
  2  4  2  0
  2  5  1  0
  5  6  2  0
  6  7  1  0
  7  8  1  0
  8  9  2  0
  9 10  1  0
 10 11  1  0
 11 12  1  0
 12 13  1  0
 13 14  1  0
  9 15  1  0
 15 16  1  0
 16 17  1  0
 17  5  1  0
 16  7  2  0
M  END
>  <pIC50>  (54) 
8.2

>  <ChEMBL_ID>  (54) 
CHEMBL552890

>  <document_journal>  (54) 
J. Med. Chem.

>  <bao_endpoint>  (54) 
BAO_0000190

>  <potential_duplicate>  (54) 
False

>  <uo_units>  (54) 
UO_0000065

>  <canonical_smiles>  (54) 
Cl.NS(=O)(=O)c1cc2cc(CNCCO)sc2s1

>  <parent_molecule_chembl_id>  (54) 
CHEMBL1194579

>  <assay_type>  (54) 
B

>  <src_id>  (54) 
1

>  <ligand_efficiency>  (54) 
{u'le': u'0.66', u'bei': u'28.05', u'sei': u'5.21', u'lle': u'8.06'}

>  <standard_flag>  (54) 
True

>  <molecule_chembl_id>  (54) 
CHEMBL552890

>  <target_organism>  (54) 
Homo sapiens

>  <standard_units>  (54) 
nM

>  <record_id>  (54) 
88098

>  <document_chembl_id>  (54) 
CHEMBL1125927

>  <bao_format>  (54) 
BAO_0000357

>  <data_validity_description>  (54) 
None

>  <activity_id>  (54) 
81790

>  <standard_type>  (54) 
IC50

>  <target_chembl_id>  (54) 
CHEMBL205

>  <data_validity_comment>  (54) 
None

>  <published_value>  (54) 
6.3E-9

>  <document_year>  (54) 
1991

>  <target_pref_name>  (54) 
Carbonic anhydrase II

>  <assay_chembl_id>  (54) 
CHEMBL656579

>  <standard_relation>  (54) 
=

>  <assay_description>  (54) 
In vitro inhibitory activity against human carbonic anhydrase II

>  <published_relation>  (54) 
=

>  <standard_value>  (54) 
6.3

>  <qudt_units>  (54) 
http://www.openphacts.org/units/Nanomolar

>  <target_tax_id>  (54) 
9606

>  <bao_label>  (54) 
single protein format

>  <published_units>  (54) 
M

>  <pchembl_value>  (54) 
8.2

>  <published_type>  (54) 
I50

>  <activity_comment>  (54) 
None

$$$$

     RDKit          

 16 16  0  0  0  0  0  0  0  0999 V2000
    0.0000    0.0000    0.0000 N   0  0  0  0  0  0  0  0  0  0  0  0
    0.0000    0.0000    0.0000 S   0  0  0  0  0  0  0  0  0  0  0  0
    0.0000    0.0000    0.0000 O   0  0  0  0  0  0  0  0  0  0  0  0
    0.0000    0.0000    0.0000 O   0  0  0  0  0  0  0  0  0  0  0  0
    0.0000    0.0000    0.0000 C   0  0  0  0  0  0  0  0  0  0  0  0
    0.0000    0.0000    0.0000 C   0  0  0  0  0  0  0  0  0  0  0  0
    0.0000    0.0000    0.0000 C   0  0  0  0  0  0  0  0  0  0  0  0
    0.0000    0.0000    0.0000 Cl  0  0  0  0  0  0  0  0  0  0  0  0
    0.0000    0.0000    0.0000 C   0  0  0  0  0  0  0  0  0  0  0  0
    0.0000    0.0000    0.0000 Cl  0  0  0  0  0  0  0  0  0  0  0  0
    0.0000    0.0000    0.0000 C   0  0  0  0  0  0  0  0  0  0  0  0
    0.0000    0.0000    0.0000 C   0  0  0  0  0  0  0  0  0  0  0  0
    0.0000    0.0000    0.0000 S   0  0  0  0  0  0  0  0  0  0  0  0
    0.0000    0.0000    0.0000 O   0  0  0  0  0  0  0  0  0  0  0  0
    0.0000    0.0000    0.0000 O   0  0  0  0  0  0  0  0  0  0  0  0
    0.0000    0.0000    0.0000 N   0  0  0  0  0  0  0  0  0  0  0  0
  1  2  1  0
  2  3  2  0
  2  4  2  0
  2  5  1  0
  5  6  2  0
  6  7  1  0
  7  8  1  0
  7  9  2  0
  9 10  1  0
  9 11  1  0
 11 12  2  0
 11 13  1  0
 13 14  2  0
 13 15  2  0
 13 16  1  0
 12  5  1  0
M  END
>  <pIC50>  (55) 
7.408

>  <ChEMBL_ID>  (55) 
CHEMBL17

>  <document_journal>  (55) 
J. Med. Chem.

>  <bao_endpoint>  (55) 
BAO_0000190

>  <potential_duplicate>  (55) 
True

>  <uo_units>  (55) 
UO_0000065

>  <canonical_smiles>  (55) 
NS(=O)(=O)c1cc(Cl)c(Cl)c(c1)S(=O)(=O)N

>  <parent_molecule_chembl_id>  (55) 
CHEMBL17

>  <assay_type>  (55) 
B

>  <src_id>  (55) 
1

>  <ligand_efficiency>  (55) 
{u'le': u'0.63', u'bei': u'24.24', u'sei': u'5.4', u'lle': u'6.83'}

>  <standard_flag>  (55) 
True

>  <molecule_chembl_id>  (55) 
CHEMBL17

>  <target_organism>  (55) 
Homo sapiens

>  <standard_units>  (55) 
nM

>  <record_id>  (55) 
227792

>  <document_chembl_id>  (55) 
CHEMBL1135542

>  <bao_format>  (55) 
BAO_0000357

>  <data_validity_description>  (55) 
None

>  <activity_id>  (55) 
82735

>  <standard_type>  (55) 
IC50

>  <target_chembl_id>  (55) 
CHEMBL205

>  <data_validity_comment>  (55) 
None

>  <published_value>  (55) 
40

>  <document_year>  (55) 
2002

>  <target_pref_name>  (55) 
Carbonic anhydrase II

>  <assay_chembl_id>  (55) 
CHEMBL657920

>  <standard_relation>  (55) 
=

>  <assay_description>  (55) 
Inhibitory activity against carbonic anhydrase II

>  <published_relation>  (55) 
=

>  <standard_value>  (55) 
40

>  <qudt_units>  (55) 
http://www.openphacts.org/units/Nanomolar

>  <target_tax_id>  (55) 
9606

>  <bao_label>  (55) 
single protein format

>  <published_units>  (55) 
nM

>  <pchembl_value>  (55) 
7.4

>  <published_type>  (55) 
IC50

>  <activity_comment>  (55) 
None

$$$$

     RDKit          

 22 23  0  0  0  0  0  0  0  0999 V2000
    0.0000    0.0000    0.0000 C   0  0  0  0  0  0  0  0  0  0  0  0
    0.0000    0.0000    0.0000 O   0  0  0  0  0  0  0  0  0  0  0  0
    0.0000    0.0000    0.0000 C   0  0  0  0  0  0  0  0  0  0  0  0
    0.0000    0.0000    0.0000 C   0  0  0  0  0  0  0  0  0  0  0  0
    0.0000    0.0000    0.0000 O   0  0  0  0  0  0  0  0  0  0  0  0
    0.0000    0.0000    0.0000 C   0  0  0  0  0  0  0  0  0  0  0  0
    0.0000    0.0000    0.0000 C   0  0  0  0  0  0  0  0  0  0  0  0
    0.0000    0.0000    0.0000 C   0  0  0  0  0  0  0  0  0  0  0  0
    0.0000    0.0000    0.0000 N   0  0  0  0  0  0  0  0  0  0  0  0
    0.0000    0.0000    0.0000 C   0  0  0  0  0  0  0  0  0  0  0  0
    0.0000    0.0000    0.0000 C   0  0  0  0  0  0  0  0  0  0  0  0
    0.0000    0.0000    0.0000 C   0  0  0  0  0  0  0  0  0  0  0  0
    0.0000    0.0000    0.0000 C   0  0  0  0  0  0  0  0  0  0  0  0
    0.0000    0.0000    0.0000 C   0  0  0  0  0  0  0  0  0  0  0  0
    0.0000    0.0000    0.0000 C   0  0  0  0  0  0  0  0  0  0  0  0
    0.0000    0.0000    0.0000 S   0  0  0  0  0  0  0  0  0  0  0  0
    0.0000    0.0000    0.0000 C   0  0  0  0  0  0  0  0  0  0  0  0
    0.0000    0.0000    0.0000 S   0  0  0  0  0  0  0  0  0  0  0  0
    0.0000    0.0000    0.0000 S   0  0  0  0  0  0  0  0  0  0  0  0
    0.0000    0.0000    0.0000 O   0  0  0  0  0  0  0  0  0  0  0  0
    0.0000    0.0000    0.0000 O   0  0  0  0  0  0  0  0  0  0  0  0
    0.0000    0.0000    0.0000 N   0  0  0  0  0  0  0  0  0  0  0  0
  1  2  1  0
  2  3  1  0
  3  4  1  0
  4  5  1  0
  5  6  1  0
  6  7  1  0
  7  8  1  0
  8  9  1  0
  9 10  1  0
 10 11  1  0
 11 12  2  0
 12 13  1  0
 13 14  1  0
 14 15  2  0
 15 16  1  0
 16 17  1  0
 17 18  1  0
 15 19  1  0
 19 20  2  0
 19 21  2  0
 19 22  1  0
 18 11  1  0
 17 13  2  0
M  END
>  <pIC50>  (56) 
8.19

>  <ChEMBL_ID>  (56) 
CHEMBL543798

>  <document_journal>  (56) 
J. Med. Chem.

>  <bao_endpoint>  (56) 
BAO_0000190

>  <potential_duplicate>  (56) 
False

>  <uo_units>  (56) 
UO_0000065

>  <canonical_smiles>  (56) 
Cl.COCCOCCCNCc1cc2cc(sc2s1)S(=O)(=O)N

>  <parent_molecule_chembl_id>  (56) 
CHEMBL1192547

>  <assay_type>  (56) 
B

>  <src_id>  (56) 
1

>  <ligand_efficiency>  (56) 
{u'le': u'0.51', u'bei': u'22.46', u'sei': u'5.27', u'lle': u'7.71'}

>  <standard_flag>  (56) 
True

>  <molecule_chembl_id>  (56) 
CHEMBL543798

>  <target_organism>  (56) 
Homo sapiens

>  <standard_units>  (56) 
nM

>  <record_id>  (56) 
88074

>  <document_chembl_id>  (56) 
CHEMBL1125927

>  <bao_format>  (56) 
BAO_0000357

>  <data_validity_description>  (56) 
None

>  <activity_id>  (56) 
82884

>  <standard_type>  (56) 
IC50

>  <target_chembl_id>  (56) 
CHEMBL205

>  <data_validity_comment>  (56) 
None

>  <published_value>  (56) 
6.5E-9

>  <document_year>  (56) 
1991

>  <target_pref_name>  (56) 
Carbonic anhydrase II

>  <assay_chembl_id>  (56) 
CHEMBL656579

>  <standard_relation>  (56) 
=

>  <assay_description>  (56) 
In vitro inhibitory activity against human carbonic anhydrase II

>  <published_relation>  (56) 
=

>  <standard_value>  (56) 
6.5

>  <qudt_units>  (56) 
http://www.openphacts.org/units/Nanomolar

>  <target_tax_id>  (56) 
9606

>  <bao_label>  (56) 
single protein format

>  <published_units>  (56) 
M

>  <pchembl_value>  (56) 
8.19

>  <published_type>  (56) 
I50

>  <activity_comment>  (56) 
None

$$$$

     RDKit          

 17 17  0  0  0  0  0  0  0  0999 V2000
    0.0000    0.0000    0.0000 N   0  0  0  0  0  0  0  0  0  0  0  0
    0.0000    0.0000    0.0000 S   0  0  0  0  0  0  0  0  0  0  0  0
    0.0000    0.0000    0.0000 O   0  0  0  0  0  0  0  0  0  0  0  0
    0.0000    0.0000    0.0000 O   0  0  0  0  0  0  0  0  0  0  0  0
    0.0000    0.0000    0.0000 C   0  0  0  0  0  0  0  0  0  0  0  0
    0.0000    0.0000    0.0000 C   0  0  0  0  0  0  0  0  0  0  0  0
    0.0000    0.0000    0.0000 C   0  0  0  0  0  0  0  0  0  0  0  0
    0.0000    0.0000    0.0000 C   0  0  0  0  0  0  0  0  0  0  0  0
    0.0000    0.0000    0.0000 S   0  0  0  0  0  0  0  0  0  0  0  0
    0.0000    0.0000    0.0000 S   0  0  0  0  0  0  0  0  0  0  0  0
    0.0000    0.0000    0.0000 O   0  0  0  0  0  0  0  0  0  0  0  0
    0.0000    0.0000    0.0000 O   0  0  0  0  0  0  0  0  0  0  0  0
    0.0000    0.0000    0.0000 C   0  0  0  0  0  0  0  0  0  0  0  0
    0.0000    0.0000    0.0000 C   0  0  0  0  0  0  0  0  0  0  0  0
    0.0000    0.0000    0.0000 C   0  0  0  0  0  0  0  0  0  0  0  0
    0.0000    0.0000    0.0000 C   0  0  0  0  0  0  0  0  0  0  0  0
    0.0000    0.0000    0.0000 O   0  0  0  0  0  0  0  0  0  0  0  0
  1  2  1  0
  2  3  2  0
  2  4  2  0
  2  5  1  0
  5  6  2  0
  6  7  1  0
  7  8  2  0
  8  9  1  0
  8 10  1  0
 10 11  2  0
 10 12  2  0
 10 13  1  0
 13 14  1  0
 14 15  1  0
 15 16  1  0
 16 17  1  0
  9  5  1  0
M  END
>  <pIC50>  (57) 
8.64

>  <ChEMBL_ID>  (57) 
CHEMBL104621

>  <document_journal>  (57) 
J. Med. Chem.

>  <bao_endpoint>  (57) 
BAO_0000190

>  <potential_duplicate>  (57) 
True

>  <uo_units>  (57) 
UO_0000065

>  <canonical_smiles>  (57) 
NS(=O)(=O)c1ccc(s1)S(=O)(=O)CCCCO

>  <parent_molecule_chembl_id>  (57) 
CHEMBL104621

>  <assay_type>  (57) 
B

>  <src_id>  (57) 
1

>  <ligand_efficiency>  (57) 
{u'le': u'0.69', u'bei': u'28.85', u'sei': u'5.41', u'lle': u'8.56'}

>  <standard_flag>  (57) 
True

>  <molecule_chembl_id>  (57) 
CHEMBL104621

>  <target_organism>  (57) 
Homo sapiens

>  <standard_units>  (57) 
nM

>  <record_id>  (57) 
227760

>  <document_chembl_id>  (57) 
CHEMBL1135542

>  <bao_format>  (57) 
BAO_0000357

>  <data_validity_description>  (57) 
None

>  <activity_id>  (57) 
83709

>  <standard_type>  (57) 
IC50

>  <target_chembl_id>  (57) 
CHEMBL205

>  <data_validity_comment>  (57) 
None

>  <published_value>  (57) 
2.3

>  <document_year>  (57) 
2002

>  <target_pref_name>  (57) 
Carbonic anhydrase II

>  <assay_chembl_id>  (57) 
CHEMBL657920

>  <standard_relation>  (57) 
=

>  <assay_description>  (57) 
Inhibitory activity against carbonic anhydrase II

>  <published_relation>  (57) 
=

>  <standard_value>  (57) 
2.3

>  <qudt_units>  (57) 
http://www.openphacts.org/units/Nanomolar

>  <target_tax_id>  (57) 
9606

>  <bao_label>  (57) 
single protein format

>  <published_units>  (57) 
nM

>  <pchembl_value>  (57) 
8.64

>  <published_type>  (57) 
IC50

>  <activity_comment>  (57) 
None

$$$$

     RDKit          

 19 20  0  0  0  0  0  0  0  0999 V2000
    0.0000    0.0000    0.0000 N   0  0  0  0  0  0  0  0  0  0  0  0
    0.0000    0.0000    0.0000 S   0  0  0  0  0  0  0  0  0  0  0  0
    0.0000    0.0000    0.0000 O   0  0  0  0  0  0  0  0  0  0  0  0
    0.0000    0.0000    0.0000 O   0  0  0  0  0  0  0  0  0  0  0  0
    0.0000    0.0000    0.0000 C   0  0  0  0  0  0  0  0  0  0  0  0
    0.0000    0.0000    0.0000 C   0  0  0  0  0  0  0  0  0  0  0  0
    0.0000    0.0000    0.0000 C   0  0  0  0  0  0  0  0  0  0  0  0
    0.0000    0.0000    0.0000 C   0  0  0  0  0  0  0  0  0  0  0  0
    0.0000    0.0000    0.0000 C   0  0  0  0  0  0  0  0  0  0  0  0
    0.0000    0.0000    0.0000 C   0  0  0  0  0  0  0  0  0  0  0  0
    0.0000    0.0000    0.0000 N   0  0  0  0  0  0  0  0  0  0  0  0
    0.0000    0.0000    0.0000 C   0  0  0  0  0  0  0  0  0  0  0  0
    0.0000    0.0000    0.0000 C   0  0  0  0  0  0  0  0  0  0  0  0
    0.0000    0.0000    0.0000 O   0  0  0  0  0  0  0  0  0  0  0  0
    0.0000    0.0000    0.0000 C   0  0  0  0  0  0  0  0  0  0  0  0
    0.0000    0.0000    0.0000 O   0  0  0  0  0  0  0  0  0  0  0  0
    0.0000    0.0000    0.0000 S   0  0  0  0  0  0  0  0  0  0  0  0
    0.0000    0.0000    0.0000 C   0  0  0  0  0  0  0  0  0  0  0  0
    0.0000    0.0000    0.0000 S   0  0  0  0  0  0  0  0  0  0  0  0
  1  2  1  0
  2  3  2  0
  2  4  2  0
  2  5  1  0
  5  6  2  0
  6  7  1  0
  7  8  1  0
  8  9  2  0
  9 10  1  0
 10 11  1  0
 11 12  1  0
 12 13  1  0
 13 14  1  0
 12 15  1  0
 15 16  1  0
  9 17  1  0
 17 18  1  0
 18 19  1  0
 19  5  1  0
 18  7  2  0
M  END
>  <pIC50>  (58) 
8.08

>  <ChEMBL_ID>  (58) 
CHEMBL543561

>  <document_journal>  (58) 
J. Med. Chem.

>  <bao_endpoint>  (58) 
BAO_0000190

>  <potential_duplicate>  (58) 
False

>  <uo_units>  (58) 
UO_0000065

>  <canonical_smiles>  (58) 
Cl.NS(=O)(=O)c1cc2cc(CNC(CO)CO)sc2s1

>  <parent_molecule_chembl_id>  (58) 
CHEMBL1192340

>  <assay_type>  (58) 
B

>  <src_id>  (58) 
1

>  <ligand_efficiency>  (58) 
{u'le': u'0.58', u'bei': u'25.05', u'sei': u'4.55', u'lle': u'8.45'}

>  <standard_flag>  (58) 
True

>  <molecule_chembl_id>  (58) 
CHEMBL543561

>  <target_organism>  (58) 
Homo sapiens

>  <standard_units>  (58) 
nM

>  <record_id>  (58) 
88097

>  <document_chembl_id>  (58) 
CHEMBL1125927

>  <bao_format>  (58) 
BAO_0000357

>  <data_validity_description>  (58) 
None

>  <activity_id>  (58) 
83814

>  <standard_type>  (58) 
IC50

>  <target_chembl_id>  (58) 
CHEMBL205

>  <data_validity_comment>  (58) 
None

>  <published_value>  (58) 
8.4E-9

>  <document_year>  (58) 
1991

>  <target_pref_name>  (58) 
Carbonic anhydrase II

>  <assay_chembl_id>  (58) 
CHEMBL656579

>  <standard_relation>  (58) 
=

>  <assay_description>  (58) 
In vitro inhibitory activity against human carbonic anhydrase II

>  <published_relation>  (58) 
=

>  <standard_value>  (58) 
8.4

>  <qudt_units>  (58) 
http://www.openphacts.org/units/Nanomolar

>  <target_tax_id>  (58) 
9606

>  <bao_label>  (58) 
single protein format

>  <published_units>  (58) 
M

>  <pchembl_value>  (58) 
8.08

>  <published_type>  (58) 
I50

>  <activity_comment>  (58) 
None

$$$$

     RDKit          

 18 19  0  0  0  0  0  0  0  0999 V2000
    0.0000    0.0000    0.0000 C   0  0  0  0  0  0  0  0  0  0  0  0
    0.0000    0.0000    0.0000 O   0  0  0  0  0  0  0  0  0  0  0  0
    0.0000    0.0000    0.0000 C   0  0  0  0  0  0  0  0  0  0  0  0
    0.0000    0.0000    0.0000 C   0  0  0  0  0  0  0  0  0  0  0  0
    0.0000    0.0000    0.0000 N   0  0  0  0  0  0  0  0  0  0  0  0
    0.0000    0.0000    0.0000 C   0  0  0  0  0  0  0  0  0  0  0  0
    0.0000    0.0000    0.0000 C   0  0  0  0  0  0  0  0  0  0  0  0
    0.0000    0.0000    0.0000 C   0  0  0  0  0  0  0  0  0  0  0  0
    0.0000    0.0000    0.0000 C   0  0  0  0  0  0  0  0  0  0  0  0
    0.0000    0.0000    0.0000 S   0  0  0  0  0  0  0  0  0  0  0  0
    0.0000    0.0000    0.0000 C   0  0  0  0  0  0  0  0  0  0  0  0
    0.0000    0.0000    0.0000 C   0  0  0  0  0  0  0  0  0  0  0  0
    0.0000    0.0000    0.0000 C   0  0  0  0  0  0  0  0  0  0  0  0
    0.0000    0.0000    0.0000 S   0  0  0  0  0  0  0  0  0  0  0  0
    0.0000    0.0000    0.0000 S   0  0  0  0  0  0  0  0  0  0  0  0
    0.0000    0.0000    0.0000 O   0  0  0  0  0  0  0  0  0  0  0  0
    0.0000    0.0000    0.0000 O   0  0  0  0  0  0  0  0  0  0  0  0
    0.0000    0.0000    0.0000 N   0  0  0  0  0  0  0  0  0  0  0  0
  1  2  1  0
  2  3  1  0
  3  4  1  0
  4  5  1  0
  5  6  1  0
  6  7  1  0
  7  8  2  0
  8  9  1  0
  9 10  1  0
 10 11  1  0
 11 12  2  0
 12 13  1  0
 13 14  1  0
 11 15  1  0
 15 16  2  0
 15 17  2  0
 15 18  1  0
 14  7  1  0
 13  9  2  0
M  END
>  <pIC50>  (59) 
8.55

>  <ChEMBL_ID>  (59) 
CHEMBL556132

>  <document_journal>  (59) 
J. Med. Chem.

>  <bao_endpoint>  (59) 
BAO_0000190

>  <potential_duplicate>  (59) 
False

>  <uo_units>  (59) 
UO_0000065

>  <canonical_smiles>  (59) 
Cl.COCCNCc1cc2sc(cc2s1)S(=O)(=O)N

>  <parent_molecule_chembl_id>  (59) 
CHEMBL1196199

>  <assay_type>  (59) 
B

>  <src_id>  (59) 
1

>  <ligand_efficiency>  (59) 
{u'le': u'0.65', u'bei': u'27.91', u'sei': u'5.85', u'lle': u'7.59'}

>  <standard_flag>  (59) 
True

>  <molecule_chembl_id>  (59) 
CHEMBL556132

>  <target_organism>  (59) 
Homo sapiens

>  <standard_units>  (59) 
nM

>  <record_id>  (59) 
88078

>  <document_chembl_id>  (59) 
CHEMBL1125927

>  <bao_format>  (59) 
BAO_0000357

>  <data_validity_description>  (59) 
None

>  <activity_id>  (59) 
83818

>  <standard_type>  (59) 
IC50

>  <target_chembl_id>  (59) 
CHEMBL205

>  <data_validity_comment>  (59) 
None

>  <published_value>  (59) 
2.8E-9

>  <document_year>  (59) 
1991

>  <target_pref_name>  (59) 
Carbonic anhydrase II

>  <assay_chembl_id>  (59) 
CHEMBL656579

>  <standard_relation>  (59) 
=

>  <assay_description>  (59) 
In vitro inhibitory activity against human carbonic anhydrase II

>  <published_relation>  (59) 
=

>  <standard_value>  (59) 
2.8

>  <qudt_units>  (59) 
http://www.openphacts.org/units/Nanomolar

>  <target_tax_id>  (59) 
9606

>  <bao_label>  (59) 
single protein format

>  <published_units>  (59) 
M

>  <pchembl_value>  (59) 
8.55

>  <published_type>  (59) 
I50

>  <activity_comment>  (59) 
None

$$$$

     RDKit          

 20 21  0  0  0  0  0  0  0  0999 V2000
    0.0000    0.0000    0.0000 N   0  0  0  0  0  0  0  0  0  0  0  0
    0.0000    0.0000    0.0000 S   0  0  0  0  0  0  0  0  0  0  0  0
    0.0000    0.0000    0.0000 O   0  0  0  0  0  0  0  0  0  0  0  0
    0.0000    0.0000    0.0000 O   0  0  0  0  0  0  0  0  0  0  0  0
    0.0000    0.0000    0.0000 C   0  0  0  0  0  0  0  0  0  0  0  0
    0.0000    0.0000    0.0000 C   0  0  0  0  0  0  0  0  0  0  0  0
    0.0000    0.0000    0.0000 C   0  0  0  0  0  0  0  0  0  0  0  0
    0.0000    0.0000    0.0000 C   0  0  0  0  0  0  0  0  0  0  0  0
    0.0000    0.0000    0.0000 C   0  0  0  0  0  0  0  0  0  0  0  0
    0.0000    0.0000    0.0000 S   0  0  0  0  0  0  0  0  0  0  0  0
    0.0000    0.0000    0.0000 C   0  0  0  0  0  0  0  0  0  0  0  0
    0.0000    0.0000    0.0000 S   0  0  0  0  0  0  0  0  0  0  0  0
    0.0000    0.0000    0.0000 C   0  0  0  0  0  0  0  0  0  0  0  0
    0.0000    0.0000    0.0000 O   0  0  0  0  0  0  0  0  0  0  0  0
    0.0000    0.0000    0.0000 N   0  0  0  0  0  0  0  0  0  0  0  0
    0.0000    0.0000    0.0000 C   0  0  0  0  0  0  0  0  0  0  0  0
    0.0000    0.0000    0.0000 C   0  0  0  0  0  0  0  0  0  0  0  0
    0.0000    0.0000    0.0000 O   0  0  0  0  0  0  0  0  0  0  0  0
    0.0000    0.0000    0.0000 C   0  0  0  0  0  0  0  0  0  0  0  0
    0.0000    0.0000    0.0000 O   0  0  0  0  0  0  0  0  0  0  0  0
  1  2  1  0
  2  3  2  0
  2  4  2  0
  2  5  1  0
  5  6  2  0
  6  7  1  0
  7  8  1  0
  8  9  2  0
  9 10  1  0
 10 11  1  0
 11 12  1  0
  9 13  1  0
 13 14  2  0
 13 15  1  0
 15 16  1  0
 16 17  1  0
 17 18  1  0
 17 19  1  0
 19 20  1  0
 12  5  1  0
 11  7  2  0
M  END
>  <pIC50>  (60) 
8.5

>  <ChEMBL_ID>  (60) 
CHEMBL51975

>  <document_journal>  (60) 
J. Med. Chem.

>  <bao_endpoint>  (60) 
BAO_0000190

>  <potential_duplicate>  (60) 
False

>  <uo_units>  (60) 
UO_0000065

>  <canonical_smiles>  (60) 
NS(=O)(=O)c1cc2cc(sc2s1)C(=O)NCC(O)CO

>  <parent_molecule_chembl_id>  (60) 
CHEMBL51975

>  <assay_type>  (60) 
B

>  <src_id>  (60) 
1

>  <ligand_efficiency>  (60) 
{u'le': u'0.58', u'bei': u'25.25', u'sei': u'4.37', u'lle': u'8.98'}

>  <standard_flag>  (60) 
True

>  <molecule_chembl_id>  (60) 
CHEMBL51975

>  <target_organism>  (60) 
Homo sapiens

>  <standard_units>  (60) 
nM

>  <record_id>  (60) 
88091

>  <document_chembl_id>  (60) 
CHEMBL1125927

>  <bao_format>  (60) 
BAO_0000357

>  <data_validity_description>  (60) 
None

>  <activity_id>  (60) 
83823

>  <standard_type>  (60) 
IC50

>  <target_chembl_id>  (60) 
CHEMBL205

>  <data_validity_comment>  (60) 
None

>  <published_value>  (60) 
3.2E-9

>  <document_year>  (60) 
1991

>  <target_pref_name>  (60) 
Carbonic anhydrase II

>  <assay_chembl_id>  (60) 
CHEMBL656579

>  <standard_relation>  (60) 
=

>  <assay_description>  (60) 
In vitro inhibitory activity against human carbonic anhydrase II

>  <published_relation>  (60) 
=

>  <standard_value>  (60) 
3.2

>  <qudt_units>  (60) 
http://www.openphacts.org/units/Nanomolar

>  <target_tax_id>  (60) 
9606

>  <bao_label>  (60) 
single protein format

>  <published_units>  (60) 
M

>  <pchembl_value>  (60) 
8.5

>  <published_type>  (60) 
I50

>  <activity_comment>  (60) 
None

$$$$

     RDKit          

 20 21  0  0  0  0  0  0  0  0999 V2000
    0.0000    0.0000    0.0000 C   0  0  0  0  0  0  0  0  0  0  0  0
    0.0000    0.0000    0.0000 C   0  0  0  0  0  0  0  0  0  0  0  0
    0.0000    0.0000    0.0000 C   0  0  0  0  0  0  0  0  0  0  0  0
    0.0000    0.0000    0.0000 C   0  0  0  0  0  0  0  0  0  0  0  0
    0.0000    0.0000    0.0000 C   0  0  0  0  0  0  0  0  0  0  0  0
    0.0000    0.0000    0.0000 O   0  0  0  0  0  0  0  0  0  0  0  0
    0.0000    0.0000    0.0000 O   0  0  0  0  0  0  0  0  0  0  0  0
    0.0000    0.0000    0.0000 C   0  0  0  0  0  0  0  0  0  0  0  0
    0.0000    0.0000    0.0000 C   0  0  0  0  0  0  0  0  0  0  0  0
    0.0000    0.0000    0.0000 C   0  0  0  0  0  0  0  0  0  0  0  0
    0.0000    0.0000    0.0000 C   0  0  0  0  0  0  0  0  0  0  0  0
    0.0000    0.0000    0.0000 S   0  0  0  0  0  0  0  0  0  0  0  0
    0.0000    0.0000    0.0000 C   0  0  0  0  0  0  0  0  0  0  0  0
    0.0000    0.0000    0.0000 C   0  0  0  0  0  0  0  0  0  0  0  0
    0.0000    0.0000    0.0000 C   0  0  0  0  0  0  0  0  0  0  0  0
    0.0000    0.0000    0.0000 C   0  0  0  0  0  0  0  0  0  0  0  0
    0.0000    0.0000    0.0000 S   0  0  0  0  0  0  0  0  0  0  0  0
    0.0000    0.0000    0.0000 O   0  0  0  0  0  0  0  0  0  0  0  0
    0.0000    0.0000    0.0000 O   0  0  0  0  0  0  0  0  0  0  0  0
    0.0000    0.0000    0.0000 N   0  0  0  0  0  0  0  0  0  0  0  0
  1  2  1  0
  2  3  1  0
  2  4  1  0
  2  5  1  0
  5  6  2  0
  5  7  1  0
  7  8  1  0
  8  9  2  0
  9 10  1  0
 10 11  2  0
 11 12  1  0
 12 13  1  0
 13 14  2  0
 14 15  1  0
 15 16  2  0
 13 17  1  0
 17 18  2  0
 17 19  2  0
 17 20  1  0
 16  8  1  0
 15 11  1  0
M  END
>  <pIC50>  (61) 
8.59

>  <ChEMBL_ID>  (61) 
CHEMBL121137

>  <document_journal>  (61) 
J. Med. Chem.

>  <bao_endpoint>  (61) 
BAO_0000190

>  <potential_duplicate>  (61) 
False

>  <uo_units>  (61) 
UO_0000065

>  <canonical_smiles>  (61) 
CC(C)(C)C(=O)Oc1ccc2sc(cc2c1)S(=O)(=O)N

>  <parent_molecule_chembl_id>  (61) 
CHEMBL121137

>  <assay_type>  (61) 
B

>  <src_id>  (61) 
1

>  <ligand_efficiency>  (61) 
{u'le': u'0.59', u'bei': u'27.39', u'sei': u'6.98', u'lle': u'5.75'}

>  <standard_flag>  (61) 
True

>  <molecule_chembl_id>  (61) 
CHEMBL121137

>  <target_organism>  (61) 
Homo sapiens

>  <standard_units>  (61) 
nM

>  <record_id>  (61) 
227764

>  <document_chembl_id>  (61) 
CHEMBL1135542

>  <bao_format>  (61) 
BAO_0000357

>  <data_validity_description>  (61) 
None

>  <activity_id>  (61) 
84695

>  <standard_type>  (61) 
IC50

>  <target_chembl_id>  (61) 
CHEMBL205

>  <data_validity_comment>  (61) 
None

>  <published_value>  (61) 
2.6

>  <document_year>  (61) 
2002

>  <target_pref_name>  (61) 
Carbonic anhydrase II

>  <assay_chembl_id>  (61) 
CHEMBL657920

>  <standard_relation>  (61) 
=

>  <assay_description>  (61) 
Inhibitory activity against carbonic anhydrase II

>  <published_relation>  (61) 
=

>  <standard_value>  (61) 
2.6

>  <qudt_units>  (61) 
http://www.openphacts.org/units/Nanomolar

>  <target_tax_id>  (61) 
9606

>  <bao_label>  (61) 
single protein format

>  <published_units>  (61) 
nM

>  <pchembl_value>  (61) 
8.59

>  <published_type>  (61) 
IC50

>  <activity_comment>  (61) 
None

$$$$

     RDKit          

 18 19  0  0  0  0  0  0  0  0999 V2000
    0.0000    0.0000    0.0000 C   0  0  0  0  0  0  0  0  0  0  0  0
    0.0000    0.0000    0.0000 C   0  0  0  0  0  0  0  0  0  0  0  0
    0.0000    0.0000    0.0000 C   0  0  0  0  0  0  0  0  0  0  0  0
    0.0000    0.0000    0.0000 C   0  0  0  0  0  0  0  0  0  0  0  0
    0.0000    0.0000    0.0000 N   0  0  0  0  0  0  0  0  0  0  0  0
    0.0000    0.0000    0.0000 C   0  0  0  0  0  0  0  0  0  0  0  0
    0.0000    0.0000    0.0000 C   0  0  0  0  0  0  0  0  0  0  0  0
    0.0000    0.0000    0.0000 C   0  0  0  0  0  0  0  0  0  0  0  0
    0.0000    0.0000    0.0000 C   0  0  0  0  0  0  0  0  0  0  0  0
    0.0000    0.0000    0.0000 C   0  0  0  0  0  0  0  0  0  0  0  0
    0.0000    0.0000    0.0000 C   0  0  0  0  0  0  0  0  0  0  0  0
    0.0000    0.0000    0.0000 S   0  0  0  0  0  0  0  0  0  0  0  0
    0.0000    0.0000    0.0000 C   0  0  0  0  0  0  0  0  0  0  0  0
    0.0000    0.0000    0.0000 S   0  0  0  0  0  0  0  0  0  0  0  0
    0.0000    0.0000    0.0000 S   0  0  0  0  0  0  0  0  0  0  0  0
    0.0000    0.0000    0.0000 O   0  0  0  0  0  0  0  0  0  0  0  0
    0.0000    0.0000    0.0000 O   0  0  0  0  0  0  0  0  0  0  0  0
    0.0000    0.0000    0.0000 N   0  0  0  0  0  0  0  0  0  0  0  0
  1  2  1  0
  2  3  1  0
  2  4  1  0
  4  5  1  0
  5  6  1  0
  6  7  1  0
  7  8  2  0
  8  9  1  0
  9 10  1  0
 10 11  2  0
 11 12  1  0
 12 13  1  0
 13 14  1  0
 11 15  1  0
 15 16  2  0
 15 17  2  0
 15 18  1  0
 14  7  1  0
 13  9  2  0
M  END
>  <pIC50>  (62) 
8.6

>  <ChEMBL_ID>  (62) 
CHEMBL538245

>  <document_journal>  (62) 
J. Med. Chem.

>  <bao_endpoint>  (62) 
BAO_0000190

>  <potential_duplicate>  (62) 
False

>  <uo_units>  (62) 
UO_0000065

>  <canonical_smiles>  (62) 
Cl.CC(C)CNCc1cc2cc(sc2s1)S(=O)(=O)N

>  <parent_molecule_chembl_id>  (62) 
CHEMBL1189185

>  <assay_type>  (62) 
B

>  <src_id>  (62) 
1

>  <ligand_efficiency>  (62) 
{u'le': u'0.65', u'bei': u'28.25', u'sei': u'6.28', u'lle': u'6.73'}

>  <standard_flag>  (62) 
True

>  <molecule_chembl_id>  (62) 
CHEMBL538245

>  <target_organism>  (62) 
Homo sapiens

>  <standard_units>  (62) 
nM

>  <record_id>  (62) 
88064

>  <document_chembl_id>  (62) 
CHEMBL1125927

>  <bao_format>  (62) 
BAO_0000357

>  <data_validity_description>  (62) 
None

>  <activity_id>  (62) 
84829

>  <standard_type>  (62) 
IC50

>  <target_chembl_id>  (62) 
CHEMBL205

>  <data_validity_comment>  (62) 
None

>  <published_value>  (62) 
2.5E-9

>  <document_year>  (62) 
1991

>  <target_pref_name>  (62) 
Carbonic anhydrase II

>  <assay_chembl_id>  (62) 
CHEMBL656579

>  <standard_relation>  (62) 
=

>  <assay_description>  (62) 
In vitro inhibitory activity against human carbonic anhydrase II

>  <published_relation>  (62) 
=

>  <standard_value>  (62) 
2.5

>  <qudt_units>  (62) 
http://www.openphacts.org/units/Nanomolar

>  <target_tax_id>  (62) 
9606

>  <bao_label>  (62) 
single protein format

>  <published_units>  (62) 
M

>  <pchembl_value>  (62) 
8.6

>  <published_type>  (62) 
I50

>  <activity_comment>  (62) 
None

$$$$

     RDKit          

  8  7  0  0  0  0  0  0  0  0999 V2000
    0.0000    0.0000    0.0000 O   0  0  0  0  0  0  0  0  0  0  0  0
    0.0000    0.0000    0.0000 N   0  0  0  0  0  0  0  0  0  0  0  0
    0.0000    0.0000    0.0000 C   0  0  0  0  0  0  0  0  0  0  0  0
    0.0000    0.0000    0.0000 O   0  0  0  0  0  0  0  0  0  0  0  0
    0.0000    0.0000    0.0000 C   0  0  0  0  0  0  0  0  0  0  0  0
    0.0000    0.0000    0.0000 F   0  0  0  0  0  0  0  0  0  0  0  0
    0.0000    0.0000    0.0000 F   0  0  0  0  0  0  0  0  0  0  0  0
    0.0000    0.0000    0.0000 F   0  0  0  0  0  0  0  0  0  0  0  0
  1  2  1  0
  2  3  1  0
  3  4  2  0
  3  5  1  0
  5  6  1  0
  5  7  1  0
  5  8  1  0
M  END
>  <pIC50>  (63) 
5.42

>  <ChEMBL_ID>  (63) 
CHEMBL331715

>  <document_journal>  (63) 
J. Med. Chem.

>  <bao_endpoint>  (63) 
BAO_0000190

>  <potential_duplicate>  (63) 
False

>  <uo_units>  (63) 
UO_0000065

>  <canonical_smiles>  (63) 
ONC(=O)C(F)(F)F

>  <parent_molecule_chembl_id>  (63) 
CHEMBL331715

>  <assay_type>  (63) 
B

>  <src_id>  (63) 
1

>  <ligand_efficiency>  (63) 
{u'le': u'0.93', u'bei': u'42', u'sei': u'10.99', u'lle': u'5.15'}

>  <standard_flag>  (63) 
True

>  <molecule_chembl_id>  (63) 
CHEMBL331715

>  <target_organism>  (63) 
Homo sapiens

>  <standard_units>  (63) 
nM

>  <record_id>  (63) 
227785

>  <document_chembl_id>  (63) 
CHEMBL1135542

>  <bao_format>  (63) 
BAO_0000357

>  <data_validity_description>  (63) 
None

>  <activity_id>  (63) 
85802

>  <standard_type>  (63) 
IC50

>  <target_chembl_id>  (63) 
CHEMBL205

>  <data_validity_comment>  (63) 
None

>  <published_value>  (63) 
3.8

>  <document_year>  (63) 
2002

>  <target_pref_name>  (63) 
Carbonic anhydrase II

>  <assay_chembl_id>  (63) 
CHEMBL657920

>  <standard_relation>  (63) 
=

>  <assay_description>  (63) 
Inhibitory activity against carbonic anhydrase II

>  <published_relation>  (63) 
=

>  <standard_value>  (63) 
3800

>  <qudt_units>  (63) 
http://www.openphacts.org/units/Nanomolar

>  <target_tax_id>  (63) 
9606

>  <bao_label>  (63) 
single protein format

>  <published_units>  (63) 
uM

>  <pchembl_value>  (63) 
5.42

>  <published_type>  (63) 
IC50

>  <activity_comment>  (63) 
None

$$$$

     RDKit          

 26 27  0  0  0  0  0  0  0  0999 V2000
    0.0000    0.0000    0.0000 C   0  0  0  0  0  0  0  0  0  0  0  0
    0.0000    0.0000    0.0000 O   0  0  0  0  0  0  0  0  0  0  0  0
    0.0000    0.0000    0.0000 C   0  0  0  0  0  0  0  0  0  0  0  0
    0.0000    0.0000    0.0000 C   0  0  0  0  0  0  0  0  0  0  0  0
    0.0000    0.0000    0.0000 O   0  0  0  0  0  0  0  0  0  0  0  0
    0.0000    0.0000    0.0000 C   0  0  0  0  0  0  0  0  0  0  0  0
    0.0000    0.0000    0.0000 C   0  0  0  0  0  0  0  0  0  0  0  0
    0.0000    0.0000    0.0000 N   0  0  0  0  0  0  0  0  0  0  0  0
    0.0000    0.0000    0.0000 C   0  0  0  0  0  0  0  0  0  0  0  0
    0.0000    0.0000    0.0000 C   0  0  0  0  0  0  0  0  0  0  0  0
    0.0000    0.0000    0.0000 O   0  0  0  0  0  0  0  0  0  0  0  0
    0.0000    0.0000    0.0000 C   0  0  0  0  0  0  0  0  0  0  0  0
    0.0000    0.0000    0.0000 C   0  0  0  0  0  0  0  0  0  0  0  0
    0.0000    0.0000    0.0000 C   0  0  0  0  0  0  0  0  0  0  0  0
    0.0000    0.0000    0.0000 C   0  0  0  0  0  0  0  0  0  0  0  0
    0.0000    0.0000    0.0000 C   0  0  0  0  0  0  0  0  0  0  0  0
    0.0000    0.0000    0.0000 C   0  0  0  0  0  0  0  0  0  0  0  0
    0.0000    0.0000    0.0000 C   0  0  0  0  0  0  0  0  0  0  0  0
    0.0000    0.0000    0.0000 C   0  0  0  0  0  0  0  0  0  0  0  0
    0.0000    0.0000    0.0000 S   0  0  0  0  0  0  0  0  0  0  0  0
    0.0000    0.0000    0.0000 C   0  0  0  0  0  0  0  0  0  0  0  0
    0.0000    0.0000    0.0000 S   0  0  0  0  0  0  0  0  0  0  0  0
    0.0000    0.0000    0.0000 S   0  0  0  0  0  0  0  0  0  0  0  0
    0.0000    0.0000    0.0000 O   0  0  0  0  0  0  0  0  0  0  0  0
    0.0000    0.0000    0.0000 O   0  0  0  0  0  0  0  0  0  0  0  0
    0.0000    0.0000    0.0000 N   0  0  0  0  0  0  0  0  0  0  0  0
  1  2  1  0
  2  3  1  0
  3  4  1  0
  4  5  1  0
  5  6  1  0
  6  7  1  0
  7  8  1  0
  8  9  1  0
  9 10  1  0
 10 11  1  0
 11 12  1  0
  8 13  1  0
 13 14  1  0
 13 15  1  0
 15 16  2  0
 16 17  1  0
 17 18  1  0
 18 19  2  0
 19 20  1  0
 20 21  1  0
 21 22  1  0
 19 23  1  0
 23 24  2  0
 23 25  2  0
 23 26  1  0
 22 15  1  0
 21 17  2  0
M  END
>  <pIC50>  (64) 
9.3

>  <ChEMBL_ID>  (64) 
CHEMBL543319

>  <document_journal>  (64) 
J. Med. Chem.

>  <bao_endpoint>  (64) 
BAO_0000190

>  <potential_duplicate>  (64) 
False

>  <uo_units>  (64) 
UO_0000065

>  <canonical_smiles>  (64) 
Cl.COCCOCCN(CCOC)C(C)c1cc2cc(sc2s1)S(=O)(=O)N

>  <parent_molecule_chembl_id>  (64) 
CHEMBL1192134

>  <assay_type>  (64) 
B

>  <src_id>  (64) 
1

>  <ligand_efficiency>  (64) 
{u'le': u'0.49', u'bei': u'22.01', u'sei': u'5.96', u'lle': u'8'}

>  <standard_flag>  (64) 
True

>  <molecule_chembl_id>  (64) 
CHEMBL543319

>  <target_organism>  (64) 
Homo sapiens

>  <standard_units>  (64) 
nM

>  <record_id>  (64) 
88096

>  <document_chembl_id>  (64) 
CHEMBL1125927

>  <bao_format>  (64) 
BAO_0000357

>  <data_validity_description>  (64) 
None

>  <activity_id>  (64) 
85894

>  <standard_type>  (64) 
IC50

>  <target_chembl_id>  (64) 
CHEMBL205

>  <data_validity_comment>  (64) 
None

>  <published_value>  (64) 
5E-10

>  <document_year>  (64) 
1991

>  <target_pref_name>  (64) 
Carbonic anhydrase II

>  <assay_chembl_id>  (64) 
CHEMBL656579

>  <standard_relation>  (64) 
=

>  <assay_description>  (64) 
In vitro inhibitory activity against human carbonic anhydrase II

>  <published_relation>  (64) 
=

>  <standard_value>  (64) 
0.5

>  <qudt_units>  (64) 
http://www.openphacts.org/units/Nanomolar

>  <target_tax_id>  (64) 
9606

>  <bao_label>  (64) 
single protein format

>  <published_units>  (64) 
M

>  <pchembl_value>  (64) 
9.3

>  <published_type>  (64) 
I50

>  <activity_comment>  (64) 
None

$$$$

     RDKit          

 19 21  0  0  0  0  0  0  0  0999 V2000
    0.0000    0.0000    0.0000 N   0  0  0  0  0  0  0  0  0  0  0  0
    0.0000    0.0000    0.0000 S   0  0  0  0  0  0  0  0  0  0  0  0
    0.0000    0.0000    0.0000 O   0  0  0  0  0  0  0  0  0  0  0  0
    0.0000    0.0000    0.0000 O   0  0  0  0  0  0  0  0  0  0  0  0
    0.0000    0.0000    0.0000 C   0  0  0  0  0  0  0  0  0  0  0  0
    0.0000    0.0000    0.0000 O   0  0  0  0  0  0  0  0  0  0  0  0
    0.0000    0.0000    0.0000 C   0  0  0  0  0  0  0  0  0  0  0  0
    0.0000    0.0000    0.0000 S   0  0  0  0  0  0  0  0  0  0  0  0
    0.0000    0.0000    0.0000 C   0  0  0  0  0  0  0  0  0  0  0  0
    0.0000    0.0000    0.0000 C   0  0  0  0  0  0  0  0  0  0  0  0
    0.0000    0.0000    0.0000 N   0  0  0  0  0  0  0  0  0  0  0  0
    0.0000    0.0000    0.0000 C   0  0  0  0  0  0  0  0  0  0  0  0
    0.0000    0.0000    0.0000 C   0  0  0  0  0  0  0  0  0  0  0  0
    0.0000    0.0000    0.0000 O   0  0  0  0  0  0  0  0  0  0  0  0
    0.0000    0.0000    0.0000 C   0  0  0  0  0  0  0  0  0  0  0  0
    0.0000    0.0000    0.0000 C   0  0  0  0  0  0  0  0  0  0  0  0
    0.0000    0.0000    0.0000 C   0  0  0  0  0  0  0  0  0  0  0  0
    0.0000    0.0000    0.0000 C   0  0  0  0  0  0  0  0  0  0  0  0
    0.0000    0.0000    0.0000 C   0  0  0  0  0  0  0  0  0  0  0  0
  1  2  1  0
  2  3  2  0
  2  4  2  0
  2  5  1  0
  5  6  1  0
  6  7  1  0
  7  8  1  0
  8  9  1  0
  9 10  1  0
 10 11  1  0
 11 12  1  0
 12 13  1  0
 13 14  1  0
 14 15  1  0
 15 16  1  0
  9 17  2  0
 17 18  1  0
 18 19  1  0
 19  5  2  0
 18  7  2  0
 16 11  1  0
M  END
>  <pIC50>  (65) 
8.25

>  <ChEMBL_ID>  (65) 
CHEMBL105080

>  <document_journal>  (65) 
J. Med. Chem.

>  <bao_endpoint>  (65) 
BAO_0000190

>  <potential_duplicate>  (65) 
True

>  <uo_units>  (65) 
UO_0000065

>  <canonical_smiles>  (65) 
NS(=O)(=O)c1oc2sc(CN3CCOCC3)cc2c1

>  <parent_molecule_chembl_id>  (65) 
CHEMBL105080

>  <assay_type>  (65) 
B

>  <src_id>  (65) 
1

>  <ligand_efficiency>  (65) 
{u'le': u'0.59', u'bei': u'27.29', u'sei': u'6.74', u'lle': u'7.91'}

>  <standard_flag>  (65) 
True

>  <molecule_chembl_id>  (65) 
CHEMBL105080

>  <target_organism>  (65) 
Homo sapiens

>  <standard_units>  (65) 
nM

>  <record_id>  (65) 
227788

>  <document_chembl_id>  (65) 
CHEMBL1135542

>  <bao_format>  (65) 
BAO_0000357

>  <data_validity_description>  (65) 
None

>  <activity_id>  (65) 
86711

>  <standard_type>  (65) 
IC50

>  <target_chembl_id>  (65) 
CHEMBL205

>  <data_validity_comment>  (65) 
None

>  <published_value>  (65) 
5.6

>  <document_year>  (65) 
2002

>  <target_pref_name>  (65) 
Carbonic anhydrase II

>  <assay_chembl_id>  (65) 
CHEMBL657920

>  <standard_relation>  (65) 
=

>  <assay_description>  (65) 
Inhibitory activity against carbonic anhydrase II

>  <published_relation>  (65) 
=

>  <standard_value>  (65) 
5.6

>  <qudt_units>  (65) 
http://www.openphacts.org/units/Nanomolar

>  <target_tax_id>  (65) 
9606

>  <bao_label>  (65) 
single protein format

>  <published_units>  (65) 
nM

>  <pchembl_value>  (65) 
8.25

>  <published_type>  (65) 
IC50

>  <activity_comment>  (65) 
None

$$$$

     RDKit          

 19 20  0  0  0  0  0  0  0  0999 V2000
    0.0000    0.0000    0.0000 C   0  0  0  0  0  0  0  0  0  0  0  0
    0.0000    0.0000    0.0000 O   0  0  0  0  0  0  0  0  0  0  0  0
    0.0000    0.0000    0.0000 C   0  0  0  0  0  0  0  0  0  0  0  0
    0.0000    0.0000    0.0000 C   0  0  0  0  0  0  0  0  0  0  0  0
    0.0000    0.0000    0.0000 C   0  0  0  0  0  0  0  0  0  0  0  0
    0.0000    0.0000    0.0000 N   0  0  0  0  0  0  0  0  0  0  0  0
    0.0000    0.0000    0.0000 C   0  0  0  0  0  0  0  0  0  0  0  0
    0.0000    0.0000    0.0000 C   0  0  0  0  0  0  0  0  0  0  0  0
    0.0000    0.0000    0.0000 C   0  0  0  0  0  0  0  0  0  0  0  0
    0.0000    0.0000    0.0000 C   0  0  0  0  0  0  0  0  0  0  0  0
    0.0000    0.0000    0.0000 C   0  0  0  0  0  0  0  0  0  0  0  0
    0.0000    0.0000    0.0000 C   0  0  0  0  0  0  0  0  0  0  0  0
    0.0000    0.0000    0.0000 S   0  0  0  0  0  0  0  0  0  0  0  0
    0.0000    0.0000    0.0000 C   0  0  0  0  0  0  0  0  0  0  0  0
    0.0000    0.0000    0.0000 S   0  0  0  0  0  0  0  0  0  0  0  0
    0.0000    0.0000    0.0000 S   0  0  0  0  0  0  0  0  0  0  0  0
    0.0000    0.0000    0.0000 O   0  0  0  0  0  0  0  0  0  0  0  0
    0.0000    0.0000    0.0000 O   0  0  0  0  0  0  0  0  0  0  0  0
    0.0000    0.0000    0.0000 N   0  0  0  0  0  0  0  0  0  0  0  0
  1  2  1  0
  2  3  1  0
  3  4  1  0
  4  5  1  0
  5  6  1  0
  6  7  1  0
  7  8  1  0
  8  9  2  0
  9 10  1  0
 10 11  1  0
 11 12  2  0
 12 13  1  0
 13 14  1  0
 14 15  1  0
 12 16  1  0
 16 17  2  0
 16 18  2  0
 16 19  1  0
 15  8  1  0
 14 10  2  0
M  END
>  <pIC50>  (66) 
8.31

>  <ChEMBL_ID>  (66) 
CHEMBL542372

>  <document_journal>  (66) 
J. Med. Chem.

>  <bao_endpoint>  (66) 
BAO_0000190

>  <potential_duplicate>  (66) 
False

>  <uo_units>  (66) 
UO_0000065

>  <canonical_smiles>  (66) 
Cl.COCCCNCc1cc2cc(sc2s1)S(=O)(=O)N

>  <parent_molecule_chembl_id>  (66) 
CHEMBL1191296

>  <assay_type>  (66) 
B

>  <src_id>  (66) 
1

>  <ligand_efficiency>  (66) 
{u'le': u'0.6', u'bei': u'25.93', u'sei': u'5.68', u'lle': u'7.7'}

>  <standard_flag>  (66) 
True

>  <molecule_chembl_id>  (66) 
CHEMBL542372

>  <target_organism>  (66) 
Homo sapiens

>  <standard_units>  (66) 
nM

>  <record_id>  (66) 
88075

>  <document_chembl_id>  (66) 
CHEMBL1125927

>  <bao_format>  (66) 
BAO_0000357

>  <data_validity_description>  (66) 
None

>  <activity_id>  (66) 
86848

>  <standard_type>  (66) 
IC50

>  <target_chembl_id>  (66) 
CHEMBL205

>  <data_validity_comment>  (66) 
None

>  <published_value>  (66) 
4.9E-9

>  <document_year>  (66) 
1991

>  <target_pref_name>  (66) 
Carbonic anhydrase II

>  <assay_chembl_id>  (66) 
CHEMBL656579

>  <standard_relation>  (66) 
=

>  <assay_description>  (66) 
In vitro inhibitory activity against human carbonic anhydrase II

>  <published_relation>  (66) 
=

>  <standard_value>  (66) 
4.9

>  <qudt_units>  (66) 
http://www.openphacts.org/units/Nanomolar

>  <target_tax_id>  (66) 
9606

>  <bao_label>  (66) 
single protein format

>  <published_units>  (66) 
M

>  <pchembl_value>  (66) 
8.31

>  <published_type>  (66) 
I50

>  <activity_comment>  (66) 
None

$$$$

     RDKit          

 19 21  0  0  0  0  0  0  0  0999 V2000
    0.0000    0.0000    0.0000 N   0  0  0  0  0  0  0  0  0  0  0  0
    0.0000    0.0000    0.0000 S   0  0  0  0  0  0  0  0  0  0  0  0
    0.0000    0.0000    0.0000 O   0  0  0  0  0  0  0  0  0  0  0  0
    0.0000    0.0000    0.0000 O   0  0  0  0  0  0  0  0  0  0  0  0
    0.0000    0.0000    0.0000 C   0  0  0  0  0  0  0  0  0  0  0  0
    0.0000    0.0000    0.0000 C   0  0  0  0  0  0  0  0  0  0  0  0
    0.0000    0.0000    0.0000 C   0  0  0  0  0  0  0  0  0  0  0  0
    0.0000    0.0000    0.0000 C   0  0  0  0  0  0  0  0  0  0  0  0
    0.0000    0.0000    0.0000 C   0  0  0  0  0  0  0  0  0  0  0  0
    0.0000    0.0000    0.0000 C   0  0  0  0  0  0  0  0  0  0  0  0
    0.0000    0.0000    0.0000 N   0  0  0  0  0  0  0  0  0  0  0  0
    0.0000    0.0000    0.0000 C   0  0  0  0  0  0  0  0  0  0  0  0
    0.0000    0.0000    0.0000 C   0  0  0  0  0  0  0  0  0  0  0  0
    0.0000    0.0000    0.0000 S   0  0  0  0  0  0  0  0  0  0  0  0
    0.0000    0.0000    0.0000 C   0  0  0  0  0  0  0  0  0  0  0  0
    0.0000    0.0000    0.0000 C   0  0  0  0  0  0  0  0  0  0  0  0
    0.0000    0.0000    0.0000 S   0  0  0  0  0  0  0  0  0  0  0  0
    0.0000    0.0000    0.0000 C   0  0  0  0  0  0  0  0  0  0  0  0
    0.0000    0.0000    0.0000 S   0  0  0  0  0  0  0  0  0  0  0  0
  1  2  1  0
  2  3  2  0
  2  4  2  0
  2  5  1  0
  5  6  2  0
  6  7  1  0
  7  8  1  0
  8  9  2  0
  9 10  1  0
 10 11  1  0
 11 12  1  0
 12 13  1  0
 13 14  1  0
 14 15  1  0
 15 16  1  0
  9 17  1  0
 17 18  1  0
 18 19  1  0
 19  5  1  0
 18  7  2  0
 16 11  1  0
M  END
>  <pIC50>  (67) 
8.59

>  <ChEMBL_ID>  (67) 
CHEMBL555543

>  <document_journal>  (67) 
J. Med. Chem.

>  <bao_endpoint>  (67) 
BAO_0000190

>  <potential_duplicate>  (67) 
False

>  <uo_units>  (67) 
UO_0000065

>  <canonical_smiles>  (67) 
Cl.NS(=O)(=O)c1cc2cc(CN3CCSCC3)sc2s1

>  <parent_molecule_chembl_id>  (67) 
CHEMBL1195891

>  <assay_type>  (67) 
B

>  <src_id>  (67) 
1

>  <ligand_efficiency>  (67) 
{u'le': u'0.62', u'bei': u'25.67', u'sei': u'5.59', u'lle': u'6.94'}

>  <standard_flag>  (67) 
True

>  <molecule_chembl_id>  (67) 
CHEMBL555543

>  <target_organism>  (67) 
Homo sapiens

>  <standard_units>  (67) 
nM

>  <record_id>  (67) 
88067

>  <document_chembl_id>  (67) 
CHEMBL1125927

>  <bao_format>  (67) 
BAO_0000357

>  <data_validity_description>  (67) 
None

>  <activity_id>  (67) 
86853

>  <standard_type>  (67) 
IC50

>  <target_chembl_id>  (67) 
CHEMBL205

>  <data_validity_comment>  (67) 
None

>  <published_value>  (67) 
2.6E-9

>  <document_year>  (67) 
1991

>  <target_pref_name>  (67) 
Carbonic anhydrase II

>  <assay_chembl_id>  (67) 
CHEMBL656579

>  <standard_relation>  (67) 
=

>  <assay_description>  (67) 
In vitro inhibitory activity against human carbonic anhydrase II

>  <published_relation>  (67) 
=

>  <standard_value>  (67) 
2.6

>  <qudt_units>  (67) 
http://www.openphacts.org/units/Nanomolar

>  <target_tax_id>  (67) 
9606

>  <bao_label>  (67) 
single protein format

>  <published_units>  (67) 
M

>  <pchembl_value>  (67) 
8.59

>  <published_type>  (67) 
I50

>  <activity_comment>  (67) 
None

$$$$

     RDKit          

 23 25  0  0  0  0  0  0  0  0999 V2000
    0.0000    0.0000    0.0000 N   0  0  0  0  0  0  0  0  0  0  0  0
    0.0000    0.0000    0.0000 S   0  0  0  0  0  0  0  0  0  0  0  0
    0.0000    0.0000    0.0000 O   0  0  0  0  0  0  0  0  0  0  0  0
    0.0000    0.0000    0.0000 O   0  0  0  0  0  0  0  0  0  0  0  0
    0.0000    0.0000    0.0000 C   0  0  0  0  0  0  0  0  0  0  0  0
    0.0000    0.0000    0.0000 C   0  0  0  0  0  0  0  0  0  0  0  0
    0.0000    0.0000    0.0000 C   0  0  0  0  0  0  0  0  0  0  0  0
    0.0000    0.0000    0.0000 C   0  0  0  0  0  0  0  0  0  0  0  0
    0.0000    0.0000    0.0000 C   0  0  0  0  0  0  0  0  0  0  0  0
    0.0000    0.0000    0.0000 S   0  0  0  0  0  0  0  0  0  0  0  0
    0.0000    0.0000    0.0000 C   0  0  0  0  0  0  0  0  0  0  0  0
    0.0000    0.0000    0.0000 S   0  0  0  0  0  0  0  0  0  0  0  0
    0.0000    0.0000    0.0000 C   0  0  0  0  0  0  0  0  0  0  0  0
    0.0000    0.0000    0.0000 O   0  0  0  0  0  0  0  0  0  0  0  0
    0.0000    0.0000    0.0000 N   0  0  0  0  0  0  0  0  0  0  0  0
    0.0000    0.0000    0.0000 C   0  0  0  0  0  0  0  0  0  0  0  0
    0.0000    0.0000    0.0000 C   0  0  0  0  0  0  0  0  0  0  0  0
    0.0000    0.0000    0.0000 N   0  0  0  0  0  0  0  0  0  0  0  0
    0.0000    0.0000    0.0000 C   0  0  0  0  0  0  0  0  0  0  0  0
    0.0000    0.0000    0.0000 C   0  0  0  0  0  0  0  0  0  0  0  0
    0.0000    0.0000    0.0000 S   0  0  0  0  0  0  0  0  0  0  0  0
    0.0000    0.0000    0.0000 C   0  0  0  0  0  0  0  0  0  0  0  0
    0.0000    0.0000    0.0000 C   0  0  0  0  0  0  0  0  0  0  0  0
  1  2  1  0
  2  3  2  0
  2  4  2  0
  2  5  1  0
  5  6  2  0
  6  7  1  0
  7  8  1  0
  8  9  2  0
  9 10  1  0
 10 11  1  0
 11 12  1  0
  9 13  1  0
 13 14  2  0
 13 15  1  0
 15 16  1  0
 16 17  1  0
 17 18  1  0
 18 19  1  0
 19 20  1  0
 20 21  1  0
 21 22  1  0
 22 23  1  0
 12  5  1  0
 11  7  2  0
 23 18  1  0
M  END
>  <pIC50>  (68) 
8.54

>  <ChEMBL_ID>  (68) 
CHEMBL544731

>  <document_journal>  (68) 
J. Med. Chem.

>  <bao_endpoint>  (68) 
BAO_0000190

>  <potential_duplicate>  (68) 
False

>  <uo_units>  (68) 
UO_0000065

>  <canonical_smiles>  (68) 
Cl.NS(=O)(=O)c1cc2cc(sc2s1)C(=O)NCCN3CCSCC3

>  <parent_molecule_chembl_id>  (68) 
CHEMBL1193342

>  <assay_type>  (68) 
B

>  <src_id>  (68) 
1

>  <ligand_efficiency>  (68) 
{u'le': u'0.51', u'bei': u'21.8', u'sei': u'4.67', u'lle': u'7.41'}

>  <standard_flag>  (68) 
True

>  <molecule_chembl_id>  (68) 
CHEMBL544731

>  <target_organism>  (68) 
Homo sapiens

>  <standard_units>  (68) 
nM

>  <record_id>  (68) 
88087

>  <document_chembl_id>  (68) 
CHEMBL1125927

>  <bao_format>  (68) 
BAO_0000357

>  <data_validity_description>  (68) 
None

>  <activity_id>  (68) 
86859

>  <standard_type>  (68) 
IC50

>  <target_chembl_id>  (68) 
CHEMBL205

>  <data_validity_comment>  (68) 
None

>  <published_value>  (68) 
2.9E-9

>  <document_year>  (68) 
1991

>  <target_pref_name>  (68) 
Carbonic anhydrase II

>  <assay_chembl_id>  (68) 
CHEMBL656579

>  <standard_relation>  (68) 
=

>  <assay_description>  (68) 
In vitro inhibitory activity against human carbonic anhydrase II

>  <published_relation>  (68) 
=

>  <standard_value>  (68) 
2.9

>  <qudt_units>  (68) 
http://www.openphacts.org/units/Nanomolar

>  <target_tax_id>  (68) 
9606

>  <bao_label>  (68) 
single protein format

>  <published_units>  (68) 
M

>  <pchembl_value>  (68) 
8.54

>  <published_type>  (68) 
I50

>  <activity_comment>  (68) 
None

$$$$

     RDKit          

 22 23  0  0  0  0  0  0  0  0999 V2000
    0.0000    0.0000    0.0000 C   0  0  0  0  0  0  0  0  0  0  0  0
    0.0000    0.0000    0.0000 C   0  0  0  0  0  0  0  0  0  0  0  0
    0.0000    0.0000    0.0000 C   0  0  0  0  0  0  0  0  0  0  0  0
    0.0000    0.0000    0.0000 O   0  0  0  0  0  0  0  0  0  0  0  0
    0.0000    0.0000    0.0000 N   0  0  0  0  0  0  0  0  0  0  0  0
    0.0000    0.0000    0.0000 C   0  0  0  0  0  0  0  0  0  0  0  0
    0.0000    0.0000    0.0000 C   0  0  0  0  0  0  0  0  0  0  0  0
    0.0000    0.0000    0.0000 C   0  0  0  0  0  0  0  0  0  0  0  0
    0.0000    0.0000    0.0000 C   0  0  0  0  0  0  0  0  0  0  0  0
    0.0000    0.0000    0.0000 C   0  0  0  0  0  0  0  0  0  0  0  0
    0.0000    0.0000    0.0000 C   0  0  0  0  0  0  0  0  0  0  0  0
    0.0000    0.0000    0.0000 S   0  0  0  0  0  0  0  0  0  0  0  0
    0.0000    0.0000    0.0000 C   0  0  0  0  0  0  0  0  0  0  0  0
    0.0000    0.0000    0.0000 S   0  0  0  0  0  0  0  0  0  0  0  0
    0.0000    0.0000    0.0000 S   0  0  0  0  0  0  0  0  0  0  0  0
    0.0000    0.0000    0.0000 O   0  0  0  0  0  0  0  0  0  0  0  0
    0.0000    0.0000    0.0000 O   0  0  0  0  0  0  0  0  0  0  0  0
    0.0000    0.0000    0.0000 N   0  0  0  0  0  0  0  0  0  0  0  0
    0.0000    0.0000    0.0000 C   0  0  0  0  0  0  0  0  0  0  0  0
    0.0000    0.0000    0.0000 C   0  0  0  0  0  0  0  0  0  0  0  0
    0.0000    0.0000    0.0000 C   0  0  0  0  0  0  0  0  0  0  0  0
    0.0000    0.0000    0.0000 O   0  0  0  0  0  0  0  0  0  0  0  0
  1  2  1  0
  2  3  1  0
  3  4  2  0
  2  5  1  0
  5  6  1  0
  6  7  1  0
  7  8  2  0
  8  9  1  0
  9 10  1  0
 10 11  2  0
 11 12  1  0
 12 13  1  0
 13 14  1  0
 11 15  1  0
 15 16  2  0
 15 17  2  0
 15 18  1  0
  5 19  1  0
 19 20  1  0
 19 21  1  0
 21 22  2  0
 14  7  1  0
 13  9  2  0
M  END
>  <pIC50>  (69) 
8.57

>  <ChEMBL_ID>  (69) 
CHEMBL542122

>  <document_journal>  (69) 
J. Med. Chem.

>  <bao_endpoint>  (69) 
BAO_0000190

>  <potential_duplicate>  (69) 
False

>  <uo_units>  (69) 
UO_0000065

>  <canonical_smiles>  (69) 
Cl.CC(C=O)N(Cc1cc2cc(sc2s1)S(=O)(=O)N)C(C)C=O

>  <parent_molecule_chembl_id>  (69) 
CHEMBL1191078

>  <assay_type>  (69) 
B

>  <src_id>  (69) 
1

>  <ligand_efficiency>  (69) 
{u'le': u'0.53', u'bei': u'23.77', u'sei': u'5.28', u'lle': u'7.38'}

>  <standard_flag>  (69) 
True

>  <molecule_chembl_id>  (69) 
CHEMBL542122

>  <target_organism>  (69) 
Homo sapiens

>  <standard_units>  (69) 
nM

>  <record_id>  (69) 
88105

>  <document_chembl_id>  (69) 
CHEMBL1125927

>  <bao_format>  (69) 
BAO_0000357

>  <data_validity_description>  (69) 
None

>  <activity_id>  (69) 
87869

>  <standard_type>  (69) 
IC50

>  <target_chembl_id>  (69) 
CHEMBL205

>  <data_validity_comment>  (69) 
None

>  <published_value>  (69) 
2.71E-9

>  <document_year>  (69) 
1991

>  <target_pref_name>  (69) 
Carbonic anhydrase II

>  <assay_chembl_id>  (69) 
CHEMBL656578

>  <standard_relation>  (69) 
=

>  <assay_description>  (69) 
The compound was tested for in vitro inhibitory activity against human Carbonic anhydrase II

>  <published_relation>  (69) 
=

>  <standard_value>  (69) 
2.71

>  <qudt_units>  (69) 
http://www.openphacts.org/units/Nanomolar

>  <target_tax_id>  (69) 
9606

>  <bao_label>  (69) 
single protein format

>  <published_units>  (69) 
M

>  <pchembl_value>  (69) 
8.57

>  <published_type>  (69) 
I50

>  <activity_comment>  (69) 
None

$$$$

     RDKit          

 22 23  0  0  0  0  0  0  0  0999 V2000
    0.0000    0.0000    0.0000 C   0  0  0  0  0  0  0  0  0  0  0  0
    0.0000    0.0000    0.0000 O   0  0  0  0  0  0  0  0  0  0  0  0
    0.0000    0.0000    0.0000 C   0  0  0  0  0  0  0  0  0  0  0  0
    0.0000    0.0000    0.0000 C   0  0  0  0  0  0  0  0  0  0  0  0
    0.0000    0.0000    0.0000 N   0  0  0  0  0  0  0  0  0  0  0  0
    0.0000    0.0000    0.0000 C   0  0  0  0  0  0  0  0  0  0  0  0
    0.0000    0.0000    0.0000 C   0  0  0  0  0  0  0  0  0  0  0  0
    0.0000    0.0000    0.0000 O   0  0  0  0  0  0  0  0  0  0  0  0
    0.0000    0.0000    0.0000 C   0  0  0  0  0  0  0  0  0  0  0  0
    0.0000    0.0000    0.0000 C   0  0  0  0  0  0  0  0  0  0  0  0
    0.0000    0.0000    0.0000 C   0  0  0  0  0  0  0  0  0  0  0  0
    0.0000    0.0000    0.0000 C   0  0  0  0  0  0  0  0  0  0  0  0
    0.0000    0.0000    0.0000 C   0  0  0  0  0  0  0  0  0  0  0  0
    0.0000    0.0000    0.0000 S   0  0  0  0  0  0  0  0  0  0  0  0
    0.0000    0.0000    0.0000 C   0  0  0  0  0  0  0  0  0  0  0  0
    0.0000    0.0000    0.0000 C   0  0  0  0  0  0  0  0  0  0  0  0
    0.0000    0.0000    0.0000 C   0  0  0  0  0  0  0  0  0  0  0  0
    0.0000    0.0000    0.0000 S   0  0  0  0  0  0  0  0  0  0  0  0
    0.0000    0.0000    0.0000 S   0  0  0  0  0  0  0  0  0  0  0  0
    0.0000    0.0000    0.0000 O   0  0  0  0  0  0  0  0  0  0  0  0
    0.0000    0.0000    0.0000 O   0  0  0  0  0  0  0  0  0  0  0  0
    0.0000    0.0000    0.0000 N   0  0  0  0  0  0  0  0  0  0  0  0
  1  2  1  0
  2  3  1  0
  3  4  1  0
  4  5  1  0
  5  6  1  0
  6  7  1  0
  7  8  1  0
  8  9  1  0
  5 10  1  0
 10 11  1  0
 11 12  2  0
 12 13  1  0
 13 14  1  0
 14 15  1  0
 15 16  2  0
 16 17  1  0
 17 18  1  0
 15 19  1  0
 19 20  2  0
 19 21  2  0
 19 22  1  0
 18 11  1  0
 17 13  2  0
M  END
>  <pIC50>  (70) 
8.6

>  <ChEMBL_ID>  (70) 
CHEMBL544738

>  <document_journal>  (70) 
J. Med. Chem.

>  <bao_endpoint>  (70) 
BAO_0000190

>  <potential_duplicate>  (70) 
False

>  <uo_units>  (70) 
UO_0000065

>  <canonical_smiles>  (70) 
Cl.COCCN(CCOC)Cc1cc2sc(cc2s1)S(=O)(=O)N

>  <parent_molecule_chembl_id>  (70) 
CHEMBL1193348

>  <assay_type>  (70) 
B

>  <src_id>  (70) 
1

>  <ligand_efficiency>  (70) 
{u'le': u'0.53', u'bei': u'23.6', u'sei': u'5.86', u'lle': u'7.24'}

>  <standard_flag>  (70) 
True

>  <molecule_chembl_id>  (70) 
CHEMBL544738

>  <target_organism>  (70) 
Homo sapiens

>  <standard_units>  (70) 
nM

>  <record_id>  (70) 
88077

>  <document_chembl_id>  (70) 
CHEMBL1125927

>  <bao_format>  (70) 
BAO_0000357

>  <data_validity_description>  (70) 
None

>  <activity_id>  (70) 
88800

>  <standard_type>  (70) 
IC50

>  <target_chembl_id>  (70) 
CHEMBL205

>  <data_validity_comment>  (70) 
None

>  <published_value>  (70) 
2.5E-9

>  <document_year>  (70) 
1991

>  <target_pref_name>  (70) 
Carbonic anhydrase II

>  <assay_chembl_id>  (70) 
CHEMBL656579

>  <standard_relation>  (70) 
=

>  <assay_description>  (70) 
In vitro inhibitory activity against human carbonic anhydrase II

>  <published_relation>  (70) 
=

>  <standard_value>  (70) 
2.5

>  <qudt_units>  (70) 
http://www.openphacts.org/units/Nanomolar

>  <target_tax_id>  (70) 
9606

>  <bao_label>  (70) 
single protein format

>  <published_units>  (70) 
M

>  <pchembl_value>  (70) 
8.6

>  <published_type>  (70) 
I50

>  <activity_comment>  (70) 
None

$$$$

     RDKit          

 23 25  0  0  0  0  0  0  0  0999 V2000
    0.0000    0.0000    0.0000 N   0  0  0  0  0  0  0  0  0  0  0  0
    0.0000    0.0000    0.0000 S   0  0  0  0  0  0  0  0  0  0  0  0
    0.0000    0.0000    0.0000 O   0  0  0  0  0  0  0  0  0  0  0  0
    0.0000    0.0000    0.0000 O   0  0  0  0  0  0  0  0  0  0  0  0
    0.0000    0.0000    0.0000 C   0  0  0  0  0  0  0  0  0  0  0  0
    0.0000    0.0000    0.0000 C   0  0  0  0  0  0  0  0  0  0  0  0
    0.0000    0.0000    0.0000 C   0  0  0  0  0  0  0  0  0  0  0  0
    0.0000    0.0000    0.0000 C   0  0  0  0  0  0  0  0  0  0  0  0
    0.0000    0.0000    0.0000 C   0  0  0  0  0  0  0  0  0  0  0  0
    0.0000    0.0000    0.0000 S   0  0  0  0  0  0  0  0  0  0  0  0
    0.0000    0.0000    0.0000 C   0  0  0  0  0  0  0  0  0  0  0  0
    0.0000    0.0000    0.0000 S   0  0  0  0  0  0  0  0  0  0  0  0
    0.0000    0.0000    0.0000 C   0  0  0  0  0  0  0  0  0  0  0  0
    0.0000    0.0000    0.0000 O   0  0  0  0  0  0  0  0  0  0  0  0
    0.0000    0.0000    0.0000 N   0  0  0  0  0  0  0  0  0  0  0  0
    0.0000    0.0000    0.0000 C   0  0  0  0  0  0  0  0  0  0  0  0
    0.0000    0.0000    0.0000 C   0  0  0  0  0  0  0  0  0  0  0  0
    0.0000    0.0000    0.0000 N   0  0  0  0  0  0  0  0  0  0  0  0
    0.0000    0.0000    0.0000 C   0  0  0  0  0  0  0  0  0  0  0  0
    0.0000    0.0000    0.0000 C   0  0  0  0  0  0  0  0  0  0  0  0
    0.0000    0.0000    0.0000 O   0  0  0  0  0  0  0  0  0  0  0  0
    0.0000    0.0000    0.0000 C   0  0  0  0  0  0  0  0  0  0  0  0
    0.0000    0.0000    0.0000 C   0  0  0  0  0  0  0  0  0  0  0  0
  1  2  1  0
  2  3  2  0
  2  4  2  0
  2  5  1  0
  5  6  2  0
  6  7  1  0
  7  8  1  0
  8  9  2  0
  9 10  1  0
 10 11  1  0
 11 12  1  0
  9 13  1  0
 13 14  2  0
 13 15  1  0
 15 16  1  0
 16 17  1  0
 17 18  1  0
 18 19  1  0
 19 20  1  0
 20 21  1  0
 21 22  1  0
 22 23  1  0
 12  5  1  0
 11  7  2  0
 23 18  1  0
M  END
>  <pIC50>  (71) 
8.54

>  <ChEMBL_ID>  (71) 
CHEMBL545431

>  <document_journal>  (71) 
J. Med. Chem.

>  <bao_endpoint>  (71) 
BAO_0000190

>  <potential_duplicate>  (71) 
False

>  <uo_units>  (71) 
UO_0000065

>  <canonical_smiles>  (71) 
Cl.NS(=O)(=O)c1cc2cc(sc2s1)C(=O)NCCN3CCOCC3

>  <parent_molecule_chembl_id>  (71) 
CHEMBL1193943

>  <assay_type>  (71) 
B

>  <src_id>  (71) 
1

>  <ligand_efficiency>  (71) 
{u'le': u'0.51', u'bei': u'22.74', u'sei': u'5.13', u'lle': u'8.15'}

>  <standard_flag>  (71) 
True

>  <molecule_chembl_id>  (71) 
CHEMBL545431

>  <target_organism>  (71) 
Homo sapiens

>  <standard_units>  (71) 
nM

>  <record_id>  (71) 
88088

>  <document_chembl_id>  (71) 
CHEMBL1125927

>  <bao_format>  (71) 
BAO_0000357

>  <data_validity_description>  (71) 
None

>  <activity_id>  (71) 
88806

>  <standard_type>  (71) 
IC50

>  <target_chembl_id>  (71) 
CHEMBL205

>  <data_validity_comment>  (71) 
None

>  <published_value>  (71) 
2.9E-9

>  <document_year>  (71) 
1991

>  <target_pref_name>  (71) 
Carbonic anhydrase II

>  <assay_chembl_id>  (71) 
CHEMBL656579

>  <standard_relation>  (71) 
=

>  <assay_description>  (71) 
In vitro inhibitory activity against human carbonic anhydrase II

>  <published_relation>  (71) 
=

>  <standard_value>  (71) 
2.9

>  <qudt_units>  (71) 
http://www.openphacts.org/units/Nanomolar

>  <target_tax_id>  (71) 
9606

>  <bao_label>  (71) 
single protein format

>  <published_units>  (71) 
M

>  <pchembl_value>  (71) 
8.54

>  <published_type>  (71) 
I50

>  <activity_comment>  (71) 
None

$$$$

     RDKit          

 24 25  0  0  0  0  0  0  0  0999 V2000
    0.0000    0.0000    0.0000 N   0  0  0  0  0  0  0  0  0  0  0  0
    0.0000    0.0000    0.0000 C   0  0  0  0  0  0  0  0  0  0  0  0
    0.0000    0.0000    0.0000 O   0  0  0  0  0  0  0  0  0  0  0  0
    0.0000    0.0000    0.0000 N   0  0  0  0  0  0  0  0  0  0  0  0
    0.0000    0.0000    0.0000 C   0  0  0  0  0  0  0  0  0  0  0  0
    0.0000    0.0000    0.0000 C   0  0  0  0  0  0  0  0  0  0  0  0
    0.0000    0.0000    0.0000 C   0  0  0  0  0  0  0  0  0  0  0  0
    0.0000    0.0000    0.0000 C   0  0  0  0  0  0  0  0  0  0  0  0
    0.0000    0.0000    0.0000 C   0  0  0  0  0  0  0  0  0  0  0  0
    0.0000    0.0000    0.0000 C   0  0  0  0  0  0  0  0  0  0  0  0
    0.0000    0.0000    0.0000 S   0  0  0  0  0  0  0  0  0  0  0  0
    0.0000    0.0000    0.0000 O   0  0  0  0  0  0  0  0  0  0  0  0
    0.0000    0.0000    0.0000 O   0  0  0  0  0  0  0  0  0  0  0  0
    0.0000    0.0000    0.0000 N   0  0  0  0  0  0  0  0  0  0  0  0
    0.0000    0.0000    0.0000 C   0  0  0  0  0  0  0  0  0  0  0  0
    0.0000    0.0000    0.0000 C   0  0  0  0  0  0  0  0  0  0  0  0
    0.0000    0.0000    0.0000 C   0  0  0  0  0  0  0  0  0  0  0  0
    0.0000    0.0000    0.0000 C   0  0  0  0  0  0  0  0  0  0  0  0
    0.0000    0.0000    0.0000 C   0  0  0  0  0  0  0  0  0  0  0  0
    0.0000    0.0000    0.0000 C   0  0  0  0  0  0  0  0  0  0  0  0
    0.0000    0.0000    0.0000 S   0  0  0  0  0  0  0  0  0  0  0  0
    0.0000    0.0000    0.0000 O   0  0  0  0  0  0  0  0  0  0  0  0
    0.0000    0.0000    0.0000 O   0  0  0  0  0  0  0  0  0  0  0  0
    0.0000    0.0000    0.0000 N   0  0  0  0  0  0  0  0  0  0  0  0
  1  2  1  0
  2  3  2  0
  2  4  1  0
  4  5  1  0
  5  6  2  0
  6  7  1  0
  7  8  2  0
  8  9  1  0
  9 10  2  0
  8 11  1  0
 11 12  2  0
 11 13  2  0
 11 14  1  0
 14 15  1  0
 15 16  2  0
 16 17  1  0
 17 18  2  0
 18 19  1  0
 19 20  2  0
 18 21  1  0
 21 22  2  0
 21 23  2  0
 21 24  1  0
 10  5  1  0
 20 15  1  0
M  END
>  <pIC50>  (72) 
8.16

>  <ChEMBL_ID>  (72) 
CHEMBL120304

>  <document_journal>  (72) 
J. Med. Chem.

>  <bao_endpoint>  (72) 
BAO_0000190

>  <potential_duplicate>  (72) 
False

>  <uo_units>  (72) 
UO_0000065

>  <canonical_smiles>  (72) 
NC(=O)Nc1ccc(cc1)S(=O)(=O)Nc2ccc(cc2)S(=O)(=O)N

>  <parent_molecule_chembl_id>  (72) 
CHEMBL120304

>  <assay_type>  (72) 
B

>  <src_id>  (72) 
1

>  <ligand_efficiency>  (72) 
{u'le': u'0.46', u'bei': u'22.02', u'sei': u'4.58', u'lle': u'8.22'}

>  <standard_flag>  (72) 
True

>  <molecule_chembl_id>  (72) 
CHEMBL120304

>  <target_organism>  (72) 
Homo sapiens

>  <standard_units>  (72) 
nM

>  <record_id>  (72) 
227784

>  <document_chembl_id>  (72) 
CHEMBL1135542

>  <bao_format>  (72) 
BAO_0000357

>  <data_validity_description>  (72) 
None

>  <activity_id>  (72) 
89703

>  <standard_type>  (72) 
IC50

>  <target_chembl_id>  (72) 
CHEMBL205

>  <data_validity_comment>  (72) 
None

>  <published_value>  (72) 
7

>  <document_year>  (72) 
2002

>  <target_pref_name>  (72) 
Carbonic anhydrase II

>  <assay_chembl_id>  (72) 
CHEMBL657920

>  <standard_relation>  (72) 
=

>  <assay_description>  (72) 
Inhibitory activity against carbonic anhydrase II

>  <published_relation>  (72) 
=

>  <standard_value>  (72) 
7

>  <qudt_units>  (72) 
http://www.openphacts.org/units/Nanomolar

>  <target_tax_id>  (72) 
9606

>  <bao_label>  (72) 
single protein format

>  <published_units>  (72) 
nM

>  <pchembl_value>  (72) 
8.16

>  <published_type>  (72) 
IC50

>  <activity_comment>  (72) 
None

$$$$

     RDKit          

 19 20  0  0  0  0  0  0  0  0999 V2000
    0.0000    0.0000    0.0000 C   0  0  0  0  0  0  0  0  0  0  0  0
    0.0000    0.0000    0.0000 C   0  0  0  0  0  0  0  0  0  0  0  0
    0.0000    0.0000    0.0000 N   0  0  0  0  0  0  0  0  0  0  0  0
    0.0000    0.0000    0.0000 C   0  0  0  0  0  0  0  0  0  0  0  0
    0.0000    0.0000    0.0000 C   0  0  0  0  0  0  0  0  0  0  0  0
    0.0000    0.0000    0.0000 C   0  0  0  0  0  0  0  0  0  0  0  0
    0.0000    0.0000    0.0000 C   0  0  0  0  0  0  0  0  0  0  0  0
    0.0000    0.0000    0.0000 S   0  0  0  0  0  0  0  0  0  0  0  0
    0.0000    0.0000    0.0000 O   0  0  0  0  0  0  0  0  0  0  0  0
    0.0000    0.0000    0.0000 O   0  0  0  0  0  0  0  0  0  0  0  0
    0.0000    0.0000    0.0000 C   0  0  0  0  0  0  0  0  0  0  0  0
    0.0000    0.0000    0.0000 S   0  0  0  0  0  0  0  0  0  0  0  0
    0.0000    0.0000    0.0000 C   0  0  0  0  0  0  0  0  0  0  0  0
    0.0000    0.0000    0.0000 C   0  0  0  0  0  0  0  0  0  0  0  0
    0.0000    0.0000    0.0000 C   0  0  0  0  0  0  0  0  0  0  0  0
    0.0000    0.0000    0.0000 S   0  0  0  0  0  0  0  0  0  0  0  0
    0.0000    0.0000    0.0000 O   0  0  0  0  0  0  0  0  0  0  0  0
    0.0000    0.0000    0.0000 O   0  0  0  0  0  0  0  0  0  0  0  0
    0.0000    0.0000    0.0000 N   0  0  0  0  0  0  0  0  0  0  0  0
  1  2  1  0
  2  3  1  0
  3  4  1  0
  4  5  1  0
  5  6  1  0
  6  7  1  0
  6  8  1  0
  8  9  2  0
  8 10  2  0
  8 11  1  0
 11 12  1  0
 12 13  1  0
 13 14  2  0
 14 15  1  0
 13 16  1  0
 16 17  2  0
 16 18  2  0
 16 19  1  0
 15  4  1  0
 15 11  2  0
M  END
>  <pIC50>  (73) 
8.81

>  <ChEMBL_ID>  (73) 
CHEMBL218490

>  <document_journal>  (73) 
J. Med. Chem.

>  <bao_endpoint>  (73) 
BAO_0000190

>  <potential_duplicate>  (73) 
True

>  <uo_units>  (73) 
UO_0000065

>  <canonical_smiles>  (73) 
CCN[C@H]1C[C@H](C)S(=O)(=O)c2sc(cc12)S(=O)(=O)N

>  <parent_molecule_chembl_id>  (73) 
CHEMBL218490

>  <assay_type>  (73) 
B

>  <src_id>  (73) 
1

>  <ligand_efficiency>  (73) 
{u'le': u'0.7', u'bei': u'30.04', u'sei': u'6.44', u'lle': u'9.59'}

>  <standard_flag>  (73) 
True

>  <molecule_chembl_id>  (73) 
CHEMBL218490

>  <target_organism>  (73) 
Homo sapiens

>  <standard_units>  (73) 
nM

>  <record_id>  (73) 
227747

>  <document_chembl_id>  (73) 
CHEMBL1135542

>  <bao_format>  (73) 
BAO_0000357

>  <data_validity_description>  (73) 
None

>  <activity_id>  (73) 
90722

>  <standard_type>  (73) 
IC50

>  <target_chembl_id>  (73) 
CHEMBL205

>  <data_validity_comment>  (73) 
None

>  <published_value>  (73) 
0.18

>  <document_year>  (73) 
2002

>  <target_pref_name>  (73) 
Carbonic anhydrase II

>  <assay_chembl_id>  (73) 
CHEMBL657920

>  <standard_relation>  (73) 
=

>  <assay_description>  (73) 
Inhibitory activity against carbonic anhydrase II

>  <published_relation>  (73) 
=

>  <standard_value>  (73) 
0.18

>  <qudt_units>  (73) 
http://www.openphacts.org/units/Nanomolar

>  <target_tax_id>  (73) 
9606

>  <bao_label>  (73) 
single protein format

>  <published_units>  (73) 
nM

>  <pchembl_value>  (73) 
9.75

>  <published_type>  (73) 
IC50

>  <activity_comment>  (73) 
None

$$$$

     RDKit          

 20 22  0  0  0  0  0  0  0  0999 V2000
    0.0000    0.0000    0.0000 N   0  0  0  0  0  0  0  0  0  0  0  0
    0.0000    0.0000    0.0000 S   0  0  0  0  0  0  0  0  0  0  0  0
    0.0000    0.0000    0.0000 O   0  0  0  0  0  0  0  0  0  0  0  0
    0.0000    0.0000    0.0000 O   0  0  0  0  0  0  0  0  0  0  0  0
    0.0000    0.0000    0.0000 C   0  0  0  0  0  0  0  0  0  0  0  0
    0.0000    0.0000    0.0000 C   0  0  0  0  0  0  0  0  0  0  0  0
    0.0000    0.0000    0.0000 C   0  0  0  0  0  0  0  0  0  0  0  0
    0.0000    0.0000    0.0000 C   0  0  0  0  0  0  0  0  0  0  0  0
    0.0000    0.0000    0.0000 C   0  0  0  0  0  0  0  0  0  0  0  0
    0.0000    0.0000    0.0000 C   0  0  0  0  0  0  0  0  0  0  0  0
    0.0000    0.0000    0.0000 N   0  0  0  0  0  0  0  0  0  0  0  0
    0.0000    0.0000    0.0000 C   0  0  0  0  0  0  0  0  0  0  0  0
    0.0000    0.0000    0.0000 C   0  0  0  0  0  0  0  0  0  0  0  0
    0.0000    0.0000    0.0000 S   0  0  0  0  0  0  0  0  0  0  0  0
    0.0000    0.0000    0.0000 O   0  0  0  0  0  0  0  0  0  0  0  0
    0.0000    0.0000    0.0000 C   0  0  0  0  0  0  0  0  0  0  0  0
    0.0000    0.0000    0.0000 C   0  0  0  0  0  0  0  0  0  0  0  0
    0.0000    0.0000    0.0000 S   0  0  0  0  0  0  0  0  0  0  0  0
    0.0000    0.0000    0.0000 C   0  0  0  0  0  0  0  0  0  0  0  0
    0.0000    0.0000    0.0000 S   0  0  0  0  0  0  0  0  0  0  0  0
  1  2  1  0
  2  3  2  0
  2  4  2  0
  2  5  1  0
  5  6  2  0
  6  7  1  0
  7  8  1  0
  8  9  2  0
  9 10  1  0
 10 11  1  0
 11 12  1  0
 12 13  1  0
 13 14  1  0
 14 15  1  0
 14 16  1  0
 16 17  1  0
  9 18  1  0
 18 19  1  0
 19 20  1  0
 20  5  1  0
 19  7  2  0
 17 11  1  0
M  CHG  2  14   1  15  -1
M  END
>  <pIC50>  (74) 
8.4

>  <ChEMBL_ID>  (74) 
CHEMBL52944

>  <document_journal>  (74) 
J. Med. Chem.

>  <bao_endpoint>  (74) 
BAO_0000190

>  <potential_duplicate>  (74) 
False

>  <uo_units>  (74) 
UO_0000065

>  <canonical_smiles>  (74) 
NS(=O)(=O)c1cc2cc(CN3CC[S+]([O-])CC3)sc2s1

>  <parent_molecule_chembl_id>  (74) 
CHEMBL52944

>  <assay_type>  (74) 
B

>  <src_id>  (74) 
1

>  <ligand_efficiency>  (74) 
{u'le': u'0.57', u'bei': u'23.96', u'sei': u'5.1', u'lle': u'7.87'}

>  <standard_flag>  (74) 
True

>  <molecule_chembl_id>  (74) 
CHEMBL52944

>  <target_organism>  (74) 
Homo sapiens

>  <standard_units>  (74) 
nM

>  <record_id>  (74) 
88084

>  <document_chembl_id>  (74) 
CHEMBL1125927

>  <bao_format>  (74) 
BAO_0000357

>  <data_validity_description>  (74) 
None

>  <activity_id>  (74) 
90826

>  <standard_type>  (74) 
IC50

>  <target_chembl_id>  (74) 
CHEMBL205

>  <data_validity_comment>  (74) 
None

>  <published_value>  (74) 
4E-9

>  <document_year>  (74) 
1991

>  <target_pref_name>  (74) 
Carbonic anhydrase II

>  <assay_chembl_id>  (74) 
CHEMBL656579

>  <standard_relation>  (74) 
=

>  <assay_description>  (74) 
In vitro inhibitory activity against human carbonic anhydrase II

>  <published_relation>  (74) 
=

>  <standard_value>  (74) 
4

>  <qudt_units>  (74) 
http://www.openphacts.org/units/Nanomolar

>  <target_tax_id>  (74) 
9606

>  <bao_label>  (74) 
single protein format

>  <published_units>  (74) 
M

>  <pchembl_value>  (74) 
8.4

>  <published_type>  (74) 
I50

>  <activity_comment>  (74) 
None

$$$$

     RDKit          

 26 27  0  0  0  0  0  0  0  0999 V2000
    0.0000    0.0000    0.0000 C   0  0  0  0  0  0  0  0  0  0  0  0
    0.0000    0.0000    0.0000 O   0  0  0  0  0  0  0  0  0  0  0  0
    0.0000    0.0000    0.0000 C   0  0  0  0  0  0  0  0  0  0  0  0
    0.0000    0.0000    0.0000 C   0  0  0  0  0  0  0  0  0  0  0  0
    0.0000    0.0000    0.0000 N   0  0  0  0  0  0  0  0  0  0  0  0
    0.0000    0.0000    0.0000 C   0  0  0  0  0  0  0  0  0  0  0  0
    0.0000    0.0000    0.0000 C   0  0  0  0  0  0  0  0  0  0  0  0
    0.0000    0.0000    0.0000 N   0  0  0  0  0  0  0  0  0  0  0  0
    0.0000    0.0000    0.0000 C   0  0  0  0  0  0  0  0  0  0  0  0
    0.0000    0.0000    0.0000 O   0  0  0  0  0  0  0  0  0  0  0  0
    0.0000    0.0000    0.0000 C   0  0  0  0  0  0  0  0  0  0  0  0
    0.0000    0.0000    0.0000 C   0  0  0  0  0  0  0  0  0  0  0  0
    0.0000    0.0000    0.0000 C   0  0  0  0  0  0  0  0  0  0  0  0
    0.0000    0.0000    0.0000 C   0  0  0  0  0  0  0  0  0  0  0  0
    0.0000    0.0000    0.0000 C   0  0  0  0  0  0  0  0  0  0  0  0
    0.0000    0.0000    0.0000 S   0  0  0  0  0  0  0  0  0  0  0  0
    0.0000    0.0000    0.0000 C   0  0  0  0  0  0  0  0  0  0  0  0
    0.0000    0.0000    0.0000 S   0  0  0  0  0  0  0  0  0  0  0  0
    0.0000    0.0000    0.0000 S   0  0  0  0  0  0  0  0  0  0  0  0
    0.0000    0.0000    0.0000 O   0  0  0  0  0  0  0  0  0  0  0  0
    0.0000    0.0000    0.0000 O   0  0  0  0  0  0  0  0  0  0  0  0
    0.0000    0.0000    0.0000 N   0  0  0  0  0  0  0  0  0  0  0  0
    0.0000    0.0000    0.0000 C   0  0  0  0  0  0  0  0  0  0  0  0
    0.0000    0.0000    0.0000 C   0  0  0  0  0  0  0  0  0  0  0  0
    0.0000    0.0000    0.0000 O   0  0  0  0  0  0  0  0  0  0  0  0
    0.0000    0.0000    0.0000 C   0  0  0  0  0  0  0  0  0  0  0  0
  1  2  1  0
  2  3  1  0
  3  4  1  0
  4  5  1  0
  5  6  1  0
  6  7  1  0
  7  8  1  0
  8  9  1  0
  9 10  2  0
  9 11  1  0
 11 12  2  0
 12 13  1  0
 13 14  1  0
 14 15  2  0
 15 16  1  0
 16 17  1  0
 17 18  1  0
 15 19  1  0
 19 20  2  0
 19 21  2  0
 19 22  1  0
  5 23  1  0
 23 24  1  0
 24 25  1  0
 25 26  1  0
 18 11  1  0
 17 13  2  0
M  END
>  <pIC50>  (75) 
8.6

>  <ChEMBL_ID>  (75) 
CHEMBL541810

>  <document_journal>  (75) 
J. Med. Chem.

>  <bao_endpoint>  (75) 
BAO_0000190

>  <potential_duplicate>  (75) 
False

>  <uo_units>  (75) 
UO_0000065

>  <canonical_smiles>  (75) 
Cl.COCCN(CCNC(=O)c1cc2cc(sc2s1)S(=O)(=O)N)CCOC

>  <parent_molecule_chembl_id>  (75) 
CHEMBL1190882

>  <assay_type>  (75) 
B

>  <src_id>  (75) 
1

>  <ligand_efficiency>  (75) 
{u'le': u'0.45', u'bei': u'20.41', u'sei': u'4.89', u'lle': u'8.16'}

>  <standard_flag>  (75) 
True

>  <molecule_chembl_id>  (75) 
CHEMBL541810

>  <target_organism>  (75) 
Homo sapiens

>  <standard_units>  (75) 
nM

>  <record_id>  (75) 
88089

>  <document_chembl_id>  (75) 
CHEMBL1125927

>  <bao_format>  (75) 
BAO_0000357

>  <data_validity_description>  (75) 
None

>  <activity_id>  (75) 
90828

>  <standard_type>  (75) 
IC50

>  <target_chembl_id>  (75) 
CHEMBL205

>  <data_validity_comment>  (75) 
None

>  <published_value>  (75) 
2.5E-9

>  <document_year>  (75) 
1991

>  <target_pref_name>  (75) 
Carbonic anhydrase II

>  <assay_chembl_id>  (75) 
CHEMBL656579

>  <standard_relation>  (75) 
=

>  <assay_description>  (75) 
In vitro inhibitory activity against human carbonic anhydrase II

>  <published_relation>  (75) 
=

>  <standard_value>  (75) 
2.5

>  <qudt_units>  (75) 
http://www.openphacts.org/units/Nanomolar

>  <target_tax_id>  (75) 
9606

>  <bao_label>  (75) 
single protein format

>  <published_units>  (75) 
M

>  <pchembl_value>  (75) 
8.6

>  <published_type>  (75) 
I50

>  <activity_comment>  (75) 
None

$$$$

     RDKit          

 19 20  0  0  0  0  0  0  0  0999 V2000
    0.0000    0.0000    0.0000 C   0  0  0  0  0  0  0  0  0  0  0  0
    0.0000    0.0000    0.0000 S   0  0  0  0  0  0  0  0  0  0  0  0
    0.0000    0.0000    0.0000 O   0  0  0  0  0  0  0  0  0  0  0  0
    0.0000    0.0000    0.0000 C   0  0  0  0  0  0  0  0  0  0  0  0
    0.0000    0.0000    0.0000 C   0  0  0  0  0  0  0  0  0  0  0  0
    0.0000    0.0000    0.0000 N   0  0  0  0  0  0  0  0  0  0  0  0
    0.0000    0.0000    0.0000 C   0  0  0  0  0  0  0  0  0  0  0  0
    0.0000    0.0000    0.0000 C   0  0  0  0  0  0  0  0  0  0  0  0
    0.0000    0.0000    0.0000 C   0  0  0  0  0  0  0  0  0  0  0  0
    0.0000    0.0000    0.0000 C   0  0  0  0  0  0  0  0  0  0  0  0
    0.0000    0.0000    0.0000 C   0  0  0  0  0  0  0  0  0  0  0  0
    0.0000    0.0000    0.0000 C   0  0  0  0  0  0  0  0  0  0  0  0
    0.0000    0.0000    0.0000 S   0  0  0  0  0  0  0  0  0  0  0  0
    0.0000    0.0000    0.0000 C   0  0  0  0  0  0  0  0  0  0  0  0
    0.0000    0.0000    0.0000 S   0  0  0  0  0  0  0  0  0  0  0  0
    0.0000    0.0000    0.0000 S   0  0  0  0  0  0  0  0  0  0  0  0
    0.0000    0.0000    0.0000 O   0  0  0  0  0  0  0  0  0  0  0  0
    0.0000    0.0000    0.0000 O   0  0  0  0  0  0  0  0  0  0  0  0
    0.0000    0.0000    0.0000 N   0  0  0  0  0  0  0  0  0  0  0  0
  1  2  1  0
  2  3  1  0
  2  4  1  0
  4  5  1  0
  5  6  1  0
  6  7  1  0
  7  8  1  0
  8  9  2  0
  9 10  1  0
 10 11  1  0
 11 12  2  0
 12 13  1  0
 13 14  1  0
 14 15  1  0
 12 16  1  0
 16 17  2  0
 16 18  2  0
 16 19  1  0
 15  8  1  0
 14 10  2  0
M  CHG  2   2   1   3  -1
M  END
>  <pIC50>  (76) 
8.08

>  <ChEMBL_ID>  (76) 
CHEMBL553217

>  <document_journal>  (76) 
J. Med. Chem.

>  <bao_endpoint>  (76) 
BAO_0000190

>  <potential_duplicate>  (76) 
False

>  <uo_units>  (76) 
UO_0000065

>  <canonical_smiles>  (76) 
Cl.C[S+]([O-])CCNCc1cc2cc(sc2s1)S(=O)(=O)N

>  <parent_molecule_chembl_id>  (76) 
CHEMBL1194736

>  <assay_type>  (76) 
B

>  <src_id>  (76) 
1

>  <ligand_efficiency>  (76) 
{u'le': u'0.58', u'bei': u'23.86', u'sei': u'4.66', u'lle': u'7.9'}

>  <standard_flag>  (76) 
True

>  <molecule_chembl_id>  (76) 
CHEMBL553217

>  <target_organism>  (76) 
Homo sapiens

>  <standard_units>  (76) 
nM

>  <record_id>  (76) 
88069

>  <document_chembl_id>  (76) 
CHEMBL1125927

>  <bao_format>  (76) 
BAO_0000357

>  <data_validity_description>  (76) 
None

>  <activity_id>  (76) 
92848

>  <standard_type>  (76) 
IC50

>  <target_chembl_id>  (76) 
CHEMBL205

>  <data_validity_comment>  (76) 
None

>  <published_value>  (76) 
8.4E-9

>  <document_year>  (76) 
1991

>  <target_pref_name>  (76) 
Carbonic anhydrase II

>  <assay_chembl_id>  (76) 
CHEMBL656579

>  <standard_relation>  (76) 
=

>  <assay_description>  (76) 
In vitro inhibitory activity against human carbonic anhydrase II

>  <published_relation>  (76) 
=

>  <standard_value>  (76) 
8.4

>  <qudt_units>  (76) 
http://www.openphacts.org/units/Nanomolar

>  <target_tax_id>  (76) 
9606

>  <bao_label>  (76) 
single protein format

>  <published_units>  (76) 
M

>  <pchembl_value>  (76) 
8.08

>  <published_type>  (76) 
I50

>  <activity_comment>  (76) 
None

$$$$

     RDKit          

 15 16  0  0  0  0  0  0  0  0999 V2000
    0.0000    0.0000    0.0000 N   0  0  0  0  0  0  0  0  0  0  0  0
    0.0000    0.0000    0.0000 S   0  0  0  0  0  0  0  0  0  0  0  0
    0.0000    0.0000    0.0000 O   0  0  0  0  0  0  0  0  0  0  0  0
    0.0000    0.0000    0.0000 O   0  0  0  0  0  0  0  0  0  0  0  0
    0.0000    0.0000    0.0000 C   0  0  0  0  0  0  0  0  0  0  0  0
    0.0000    0.0000    0.0000 C   0  0  0  0  0  0  0  0  0  0  0  0
    0.0000    0.0000    0.0000 C   0  0  0  0  0  0  0  0  0  0  0  0
    0.0000    0.0000    0.0000 C   0  0  0  0  0  0  0  0  0  0  0  0
    0.0000    0.0000    0.0000 C   0  0  0  0  0  0  0  0  0  0  0  0
    0.0000    0.0000    0.0000 C   0  0  0  0  0  0  0  0  0  0  0  0
    0.0000    0.0000    0.0000 S   0  0  0  0  0  0  0  0  0  0  0  0
    0.0000    0.0000    0.0000 O   0  0  0  0  0  0  0  0  0  0  0  0
    0.0000    0.0000    0.0000 O   0  0  0  0  0  0  0  0  0  0  0  0
    0.0000    0.0000    0.0000 C   0  0  0  0  0  0  0  0  0  0  0  0
    0.0000    0.0000    0.0000 S   0  0  0  0  0  0  0  0  0  0  0  0
  1  2  1  0
  2  3  2  0
  2  4  2  0
  2  5  1  0
  5  6  2  0
  6  7  1  0
  7  8  1  0
  8  9  1  0
  9 10  1  0
 10 11  1  0
 11 12  2  0
 11 13  2  0
 11 14  1  0
 14 15  1  0
 15  5  1  0
 14  7  2  0
M  END
>  <pIC50>  (77) 
8.35

>  <ChEMBL_ID>  (77) 
CHEMBL333193

>  <document_journal>  (77) 
J. Med. Chem.

>  <bao_endpoint>  (77) 
BAO_0000190

>  <potential_duplicate>  (77) 
True

>  <uo_units>  (77) 
UO_0000065

>  <canonical_smiles>  (77) 
NS(=O)(=O)c1cc2CCCS(=O)(=O)c2s1

>  <parent_molecule_chembl_id>  (77) 
CHEMBL333193

>  <assay_type>  (77) 
B

>  <src_id>  (77) 
1

>  <ligand_efficiency>  (77) 
{u'le': u'0.76', u'bei': u'31.22', u'sei': u'5.99', u'lle': u'7.85'}

>  <standard_flag>  (77) 
True

>  <molecule_chembl_id>  (77) 
CHEMBL333193

>  <target_organism>  (77) 
Homo sapiens

>  <standard_units>  (77) 
nM

>  <record_id>  (77) 
227791

>  <document_chembl_id>  (77) 
CHEMBL1135542

>  <bao_format>  (77) 
BAO_0000357

>  <data_validity_description>  (77) 
None

>  <activity_id>  (77) 
93759

>  <standard_type>  (77) 
IC50

>  <target_chembl_id>  (77) 
CHEMBL205

>  <data_validity_comment>  (77) 
None

>  <published_value>  (77) 
4.5

>  <document_year>  (77) 
2002

>  <target_pref_name>  (77) 
Carbonic anhydrase II

>  <assay_chembl_id>  (77) 
CHEMBL657920

>  <standard_relation>  (77) 
=

>  <assay_description>  (77) 
Inhibitory activity against carbonic anhydrase II

>  <published_relation>  (77) 
=

>  <standard_value>  (77) 
4.5

>  <qudt_units>  (77) 
http://www.openphacts.org/units/Nanomolar

>  <target_tax_id>  (77) 
9606

>  <bao_label>  (77) 
single protein format

>  <published_units>  (77) 
nM

>  <pchembl_value>  (77) 
8.35

>  <published_type>  (77) 
IC50

>  <activity_comment>  (77) 
None

$$$$

     RDKit          

 20 21  0  0  0  0  0  0  0  0999 V2000
    0.0000    0.0000    0.0000 C   0  0  0  0  0  0  0  0  0  0  0  0
    0.0000    0.0000    0.0000 C   0  0  0  0  0  0  0  0  0  0  0  0
    0.0000    0.0000    0.0000 C   0  0  0  0  0  0  0  0  0  0  0  0
    0.0000    0.0000    0.0000 C   0  0  0  0  0  0  0  0  0  0  0  0
    0.0000    0.0000    0.0000 N   0  0  0  0  0  0  0  0  0  0  0  0
    0.0000    0.0000    0.0000 C   0  0  0  0  0  0  0  0  0  0  0  0
    0.0000    0.0000    0.0000 C   0  0  0  0  0  0  0  0  0  0  0  0
    0.0000    0.0000    0.0000 C   0  0  0  0  0  0  0  0  0  0  0  0
    0.0000    0.0000    0.0000 S   0  0  0  0  0  0  0  0  0  0  0  0
    0.0000    0.0000    0.0000 O   0  0  0  0  0  0  0  0  0  0  0  0
    0.0000    0.0000    0.0000 O   0  0  0  0  0  0  0  0  0  0  0  0
    0.0000    0.0000    0.0000 C   0  0  0  0  0  0  0  0  0  0  0  0
    0.0000    0.0000    0.0000 S   0  0  0  0  0  0  0  0  0  0  0  0
    0.0000    0.0000    0.0000 C   0  0  0  0  0  0  0  0  0  0  0  0
    0.0000    0.0000    0.0000 C   0  0  0  0  0  0  0  0  0  0  0  0
    0.0000    0.0000    0.0000 C   0  0  0  0  0  0  0  0  0  0  0  0
    0.0000    0.0000    0.0000 S   0  0  0  0  0  0  0  0  0  0  0  0
    0.0000    0.0000    0.0000 O   0  0  0  0  0  0  0  0  0  0  0  0
    0.0000    0.0000    0.0000 O   0  0  0  0  0  0  0  0  0  0  0  0
    0.0000    0.0000    0.0000 N   0  0  0  0  0  0  0  0  0  0  0  0
  1  2  1  0
  2  3  1  0
  2  4  1  0
  4  5  1  0
  5  6  1  0
  6  7  1  0
  7  8  1  0
  8  9  1  0
  9 10  2  0
  9 11  2  0
  9 12  1  0
 12 13  1  0
 13 14  1  0
 14 15  2  0
 15 16  1  0
 14 17  1  0
 17 18  2  0
 17 19  2  0
 17 20  1  0
 16  6  1  0
 16 12  2  0
M  END
>  <pIC50>  (78) 
8.97142857143

>  <ChEMBL_ID>  (78) 
CHEMBL417975

>  <document_journal>  (78) 
J. Med. Chem.

>  <bao_endpoint>  (78) 
BAO_0000190

>  <potential_duplicate>  (78) 
True

>  <uo_units>  (78) 
UO_0000065

>  <canonical_smiles>  (78) 
CC(C)CN[C@H]1CCS(=O)(=O)c2sc(cc12)S(=O)(=O)N

>  <parent_molecule_chembl_id>  (78) 
CHEMBL417975

>  <assay_type>  (78) 
B

>  <src_id>  (78) 
1

>  <ligand_efficiency>  (78) 
{u'le': u'0.63', u'bei': u'27.38', u'sei': u'6.12', u'lle': u'8.66'}

>  <standard_flag>  (78) 
True

>  <molecule_chembl_id>  (78) 
CHEMBL417975

>  <target_organism>  (78) 
Homo sapiens

>  <standard_units>  (78) 
nM

>  <record_id>  (78) 
227749

>  <document_chembl_id>  (78) 
CHEMBL1135542

>  <bao_format>  (78) 
BAO_0000357

>  <data_validity_description>  (78) 
None

>  <activity_id>  (78) 
93762

>  <standard_type>  (78) 
IC50

>  <target_chembl_id>  (78) 
CHEMBL205

>  <data_validity_comment>  (78) 
None

>  <published_value>  (78) 
0.54

>  <document_year>  (78) 
2002

>  <target_pref_name>  (78) 
Carbonic anhydrase II

>  <assay_chembl_id>  (78) 
CHEMBL657920

>  <standard_relation>  (78) 
=

>  <assay_description>  (78) 
Inhibitory activity against carbonic anhydrase II

>  <published_relation>  (78) 
=

>  <standard_value>  (78) 
0.54

>  <qudt_units>  (78) 
http://www.openphacts.org/units/Nanomolar

>  <target_tax_id>  (78) 
9606

>  <bao_label>  (78) 
single protein format

>  <published_units>  (78) 
nM

>  <pchembl_value>  (78) 
9.27

>  <published_type>  (78) 
IC50

>  <activity_comment>  (78) 
None

$$$$

     RDKit          

 21 22  0  0  0  0  0  0  0  0999 V2000
    0.0000    0.0000    0.0000 C   0  0  0  0  0  0  0  0  0  0  0  0
    0.0000    0.0000    0.0000 O   0  0  0  0  0  0  0  0  0  0  0  0
    0.0000    0.0000    0.0000 C   0  0  0  0  0  0  0  0  0  0  0  0
    0.0000    0.0000    0.0000 C   0  0  0  0  0  0  0  0  0  0  0  0
    0.0000    0.0000    0.0000 C   0  0  0  0  0  0  0  0  0  0  0  0
    0.0000    0.0000    0.0000 C   0  0  0  0  0  0  0  0  0  0  0  0
    0.0000    0.0000    0.0000 O   0  0  0  0  0  0  0  0  0  0  0  0
    0.0000    0.0000    0.0000 O   0  0  0  0  0  0  0  0  0  0  0  0
    0.0000    0.0000    0.0000 C   0  0  0  0  0  0  0  0  0  0  0  0
    0.0000    0.0000    0.0000 C   0  0  0  0  0  0  0  0  0  0  0  0
    0.0000    0.0000    0.0000 C   0  0  0  0  0  0  0  0  0  0  0  0
    0.0000    0.0000    0.0000 C   0  0  0  0  0  0  0  0  0  0  0  0
    0.0000    0.0000    0.0000 N   0  0  0  0  0  0  0  0  0  0  0  0
    0.0000    0.0000    0.0000 C   0  0  0  0  0  0  0  0  0  0  0  0
    0.0000    0.0000    0.0000 S   0  0  0  0  0  0  0  0  0  0  0  0
    0.0000    0.0000    0.0000 C   0  0  0  0  0  0  0  0  0  0  0  0
    0.0000    0.0000    0.0000 C   0  0  0  0  0  0  0  0  0  0  0  0
    0.0000    0.0000    0.0000 S   0  0  0  0  0  0  0  0  0  0  0  0
    0.0000    0.0000    0.0000 O   0  0  0  0  0  0  0  0  0  0  0  0
    0.0000    0.0000    0.0000 O   0  0  0  0  0  0  0  0  0  0  0  0
    0.0000    0.0000    0.0000 N   0  0  0  0  0  0  0  0  0  0  0  0
  1  2  1  0
  2  3  1  0
  3  4  1  0
  3  5  1  0
  3  6  1  0
  6  7  2  0
  6  8  1  0
  8  9  1  0
  9 10  2  0
 10 11  1  0
 11 12  2  0
 12 13  1  0
 13 14  2  0
 14 15  1  0
 15 16  1  0
 16 17  2  0
 14 18  1  0
 18 19  2  0
 18 20  2  0
 18 21  1  0
 17  9  1  0
 16 12  1  0
M  END
>  <pIC50>  (79) 
8.92

>  <ChEMBL_ID>  (79) 
CHEMBL84649

>  <document_journal>  (79) 
J. Med. Chem.

>  <bao_endpoint>  (79) 
BAO_0000190

>  <potential_duplicate>  (79) 
True

>  <uo_units>  (79) 
UO_0000065

>  <canonical_smiles>  (79) 
COC(C)(C)C(=O)Oc1ccc2nc(sc2c1)S(=O)(=O)N

>  <parent_molecule_chembl_id>  (79) 
CHEMBL84649

>  <assay_type>  (79) 
B

>  <src_id>  (79) 
1

>  <ligand_efficiency>  (79) 
{u'le': u'0.58', u'bei': u'27', u'sei': u'6.14', u'lle': u'7.46'}

>  <standard_flag>  (79) 
True

>  <molecule_chembl_id>  (79) 
CHEMBL84649

>  <target_organism>  (79) 
Homo sapiens

>  <standard_units>  (79) 
nM

>  <record_id>  (79) 
227766

>  <document_chembl_id>  (79) 
CHEMBL1135542

>  <bao_format>  (79) 
BAO_0000357

>  <data_validity_description>  (79) 
None

>  <activity_id>  (79) 
93764

>  <standard_type>  (79) 
IC50

>  <target_chembl_id>  (79) 
CHEMBL205

>  <data_validity_comment>  (79) 
None

>  <published_value>  (79) 
1.2

>  <document_year>  (79) 
2002

>  <target_pref_name>  (79) 
Carbonic anhydrase II

>  <assay_chembl_id>  (79) 
CHEMBL657920

>  <standard_relation>  (79) 
=

>  <assay_description>  (79) 
Inhibitory activity against carbonic anhydrase II

>  <published_relation>  (79) 
=

>  <standard_value>  (79) 
1.2

>  <qudt_units>  (79) 
http://www.openphacts.org/units/Nanomolar

>  <target_tax_id>  (79) 
9606

>  <bao_label>  (79) 
single protein format

>  <published_units>  (79) 
nM

>  <pchembl_value>  (79) 
8.92

>  <published_type>  (79) 
IC50

>  <activity_comment>  (79) 
None

$$$$

     RDKit          

 18 20  0  0  0  0  0  0  0  0999 V2000
    0.0000    0.0000    0.0000 N   0  0  0  0  0  0  0  0  0  0  0  0
    0.0000    0.0000    0.0000 S   0  0  0  0  0  0  0  0  0  0  0  0
    0.0000    0.0000    0.0000 O   0  0  0  0  0  0  0  0  0  0  0  0
    0.0000    0.0000    0.0000 O   0  0  0  0  0  0  0  0  0  0  0  0
    0.0000    0.0000    0.0000 C   0  0  0  0  0  0  0  0  0  0  0  0
    0.0000    0.0000    0.0000 C   0  0  0  0  0  0  0  0  0  0  0  0
    0.0000    0.0000    0.0000 C   0  0  0  0  0  0  0  0  0  0  0  0
    0.0000    0.0000    0.0000 C   0  0  0  0  0  0  0  0  0  0  0  0
    0.0000    0.0000    0.0000 C   0  0  0  0  0  0  0  0  0  0  0  0
    0.0000    0.0000    0.0000 C   0  0  0  0  0  0  0  0  0  0  0  0
    0.0000    0.0000    0.0000 N   0  0  0  0  0  0  0  0  0  0  0  0
    0.0000    0.0000    0.0000 C   0  0  0  0  0  0  0  0  0  0  0  0
    0.0000    0.0000    0.0000 C   0  0  0  0  0  0  0  0  0  0  0  0
    0.0000    0.0000    0.0000 C   0  0  0  0  0  0  0  0  0  0  0  0
    0.0000    0.0000    0.0000 C   0  0  0  0  0  0  0  0  0  0  0  0
    0.0000    0.0000    0.0000 S   0  0  0  0  0  0  0  0  0  0  0  0
    0.0000    0.0000    0.0000 C   0  0  0  0  0  0  0  0  0  0  0  0
    0.0000    0.0000    0.0000 S   0  0  0  0  0  0  0  0  0  0  0  0
  1  2  1  0
  2  3  2  0
  2  4  2  0
  2  5  1  0
  5  6  2  0
  6  7  1  0
  7  8  1  0
  8  9  2  0
  9 10  1  0
 10 11  1  0
 11 12  1  0
 12 13  1  0
 13 14  1  0
 14 15  1  0
  9 16  1  0
 16 17  1  0
 17 18  1  0
 18  5  1  0
 17  7  2  0
 15 13  1  0
M  END
>  <pIC50>  (80) 
8.48

>  <ChEMBL_ID>  (80) 
CHEMBL553951

>  <document_journal>  (80) 
J. Med. Chem.

>  <bao_endpoint>  (80) 
BAO_0000190

>  <potential_duplicate>  (80) 
False

>  <uo_units>  (80) 
UO_0000065

>  <canonical_smiles>  (80) 
Cl.NS(=O)(=O)c1cc2cc(CNCC3CC3)sc2s1

>  <parent_molecule_chembl_id>  (80) 
CHEMBL1195140

>  <assay_type>  (80) 
B

>  <src_id>  (80) 
1

>  <ligand_efficiency>  (80) 
{u'le': u'0.64', u'bei': u'28.04', u'sei': u'6.19', u'lle': u'6.98'}

>  <standard_flag>  (80) 
True

>  <molecule_chembl_id>  (80) 
CHEMBL553951

>  <target_organism>  (80) 
Homo sapiens

>  <standard_units>  (80) 
nM

>  <record_id>  (80) 
88065

>  <document_chembl_id>  (80) 
CHEMBL1125927

>  <bao_format>  (80) 
BAO_0000357

>  <data_validity_description>  (80) 
None

>  <activity_id>  (80) 
93861

>  <standard_type>  (80) 
IC50

>  <target_chembl_id>  (80) 
CHEMBL205

>  <data_validity_comment>  (80) 
None

>  <published_value>  (80) 
3.3E-9

>  <document_year>  (80) 
1991

>  <target_pref_name>  (80) 
Carbonic anhydrase II

>  <assay_chembl_id>  (80) 
CHEMBL656579

>  <standard_relation>  (80) 
=

>  <assay_description>  (80) 
In vitro inhibitory activity against human carbonic anhydrase II

>  <published_relation>  (80) 
=

>  <standard_value>  (80) 
3.3

>  <qudt_units>  (80) 
http://www.openphacts.org/units/Nanomolar

>  <target_tax_id>  (80) 
9606

>  <bao_label>  (80) 
single protein format

>  <published_units>  (80) 
M

>  <pchembl_value>  (80) 
8.48

>  <published_type>  (80) 
I50

>  <activity_comment>  (80) 
None

$$$$

     RDKit          

 33 35  0  0  0  0  0  0  0  0999 V2000
    0.0000    0.0000    0.0000 C   0  0  0  0  0  0  0  0  0  0  0  0
    0.0000    0.0000    0.0000 O   0  0  0  0  0  0  0  0  0  0  0  0
    0.0000    0.0000    0.0000 C   0  0  0  0  0  0  0  0  0  0  0  0
    0.0000    0.0000    0.0000 C   0  0  0  0  0  0  0  0  0  0  0  0
    0.0000    0.0000    0.0000 O   0  0  0  0  0  0  0  0  0  0  0  0
    0.0000    0.0000    0.0000 C   0  0  0  0  0  0  0  0  0  0  0  0
    0.0000    0.0000    0.0000 C   0  0  0  0  0  0  0  0  0  0  0  0
    0.0000    0.0000    0.0000 N   0  0  0  0  0  0  0  0  0  0  0  0
    0.0000    0.0000    0.0000 C   0  0  0  0  0  0  0  0  0  0  0  0
    0.0000    0.0000    0.0000 C   0  0  0  0  0  0  0  0  0  0  0  0
    0.0000    0.0000    0.0000 O   0  0  0  0  0  0  0  0  0  0  0  0
    0.0000    0.0000    0.0000 C   0  0  0  0  0  0  0  0  0  0  0  0
    0.0000    0.0000    0.0000 C   0  0  0  0  0  0  0  0  0  0  0  0
    0.0000    0.0000    0.0000 C   0  0  0  0  0  0  0  0  0  0  0  0
    0.0000    0.0000    0.0000 C   0  0  0  0  0  0  0  0  0  0  0  0
    0.0000    0.0000    0.0000 C   0  0  0  0  0  0  0  0  0  0  0  0
    0.0000    0.0000    0.0000 C   0  0  0  0  0  0  0  0  0  0  0  0
    0.0000    0.0000    0.0000 C   0  0  0  0  0  0  0  0  0  0  0  0
    0.0000    0.0000    0.0000 F   0  0  0  0  0  0  0  0  0  0  0  0
    0.0000    0.0000    0.0000 C   0  0  0  0  0  0  0  0  0  0  0  0
    0.0000    0.0000    0.0000 C   0  0  0  0  0  0  0  0  0  0  0  0
    0.0000    0.0000    0.0000 C   0  0  0  0  0  0  0  0  0  0  0  0
    0.0000    0.0000    0.0000 C   0  0  0  0  0  0  0  0  0  0  0  0
    0.0000    0.0000    0.0000 C   0  0  0  0  0  0  0  0  0  0  0  0
    0.0000    0.0000    0.0000 C   0  0  0  0  0  0  0  0  0  0  0  0
    0.0000    0.0000    0.0000 C   0  0  0  0  0  0  0  0  0  0  0  0
    0.0000    0.0000    0.0000 S   0  0  0  0  0  0  0  0  0  0  0  0
    0.0000    0.0000    0.0000 C   0  0  0  0  0  0  0  0  0  0  0  0
    0.0000    0.0000    0.0000 S   0  0  0  0  0  0  0  0  0  0  0  0
    0.0000    0.0000    0.0000 S   0  0  0  0  0  0  0  0  0  0  0  0
    0.0000    0.0000    0.0000 O   0  0  0  0  0  0  0  0  0  0  0  0
    0.0000    0.0000    0.0000 O   0  0  0  0  0  0  0  0  0  0  0  0
    0.0000    0.0000    0.0000 N   0  0  0  0  0  0  0  0  0  0  0  0
  1  2  1  0
  2  3  1  0
  3  4  1  0
  4  5  1  0
  5  6  1  0
  6  7  1  0
  7  8  1  0
  8  9  1  0
  9 10  1  0
 10 11  1  0
 11 12  1  0
  8 13  1  0
 13 14  1  0
 14 15  1  0
 15 16  2  0
 16 17  1  0
 17 18  2  0
 18 19  1  0
 18 20  1  0
 20 21  2  0
 13 22  1  0
 22 23  2  0
 23 24  1  0
 24 25  1  0
 25 26  2  0
 26 27  1  0
 27 28  1  0
 28 29  1  0
 26 30  1  0
 30 31  2  0
 30 32  2  0
 30 33  1  0
 21 15  1  0
 29 22  1  0
 28 24  2  0
M  END
>  <pIC50>  (81) 
8.94

>  <ChEMBL_ID>  (81) 
CHEMBL50395

>  <document_journal>  (81) 
J. Med. Chem.

>  <bao_endpoint>  (81) 
BAO_0000190

>  <potential_duplicate>  (81) 
False

>  <uo_units>  (81) 
UO_0000065

>  <canonical_smiles>  (81) 
COCCOCCN(CCOC)C(Cc1ccc(F)cc1)c2cc3cc(sc3s2)S(=O)(=O)N

>  <parent_molecule_chembl_id>  (81) 
CHEMBL50395

>  <assay_type>  (81) 
B

>  <src_id>  (81) 
1

>  <ligand_efficiency>  (81) 
{u'le': u'0.37', u'bei': u'17.3', u'sei': u'5.73', u'lle': u'5.87'}

>  <standard_flag>  (81) 
True

>  <molecule_chembl_id>  (81) 
CHEMBL50395

>  <target_organism>  (81) 
Homo sapiens

>  <standard_units>  (81) 
nM

>  <record_id>  (81) 
88095

>  <document_chembl_id>  (81) 
CHEMBL1125927

>  <bao_format>  (81) 
BAO_0000357

>  <data_validity_description>  (81) 
None

>  <activity_id>  (81) 
93864

>  <standard_type>  (81) 
IC50

>  <target_chembl_id>  (81) 
CHEMBL205

>  <data_validity_comment>  (81) 
None

>  <published_value>  (81) 
1.15E-9

>  <document_year>  (81) 
1991

>  <target_pref_name>  (81) 
Carbonic anhydrase II

>  <assay_chembl_id>  (81) 
CHEMBL656579

>  <standard_relation>  (81) 
=

>  <assay_description>  (81) 
In vitro inhibitory activity against human carbonic anhydrase II

>  <published_relation>  (81) 
=

>  <standard_value>  (81) 
1.15

>  <qudt_units>  (81) 
http://www.openphacts.org/units/Nanomolar

>  <target_tax_id>  (81) 
9606

>  <bao_label>  (81) 
single protein format

>  <published_units>  (81) 
M

>  <pchembl_value>  (81) 
8.94

>  <published_type>  (81) 
I50

>  <activity_comment>  (81) 
None

$$$$

     RDKit          

  5  4  0  0  0  0  0  0  0  0999 V2000
    0.0000    0.0000    0.0000 C   0  0  0  0  0  0  0  0  0  0  0  0
    0.0000    0.0000    0.0000 C   0  0  0  0  0  0  0  0  0  0  0  0
    0.0000    0.0000    0.0000 O   0  0  0  0  0  0  0  0  0  0  0  0
    0.0000    0.0000    0.0000 N   0  0  0  0  0  0  0  0  0  0  0  0
    0.0000    0.0000    0.0000 O   0  0  0  0  0  0  0  0  0  0  0  0
  1  2  1  0
  2  3  2  0
  2  4  1  0
  4  5  1  0
M  END
>  <pIC50>  (82) 
4.33

>  <ChEMBL_ID>  (82) 
CHEMBL734

>  <document_journal>  (82) 
J. Med. Chem.

>  <bao_endpoint>  (82) 
BAO_0000190

>  <potential_duplicate>  (82) 
False

>  <uo_units>  (82) 
UO_0000065

>  <canonical_smiles>  (82) 
CC(=O)NO

>  <parent_molecule_chembl_id>  (82) 
CHEMBL734

>  <assay_type>  (82) 
B

>  <src_id>  (82) 
1

>  <ligand_efficiency>  (82) 
{u'le': u'1.18', u'bei': u'57.65', u'sei': u'8.77', u'lle': u'5.15'}

>  <standard_flag>  (82) 
True

>  <molecule_chembl_id>  (82) 
CHEMBL734

>  <target_organism>  (82) 
Homo sapiens

>  <standard_units>  (82) 
nM

>  <record_id>  (82) 
227786

>  <document_chembl_id>  (82) 
CHEMBL1135542

>  <bao_format>  (82) 
BAO_0000357

>  <data_validity_description>  (82) 
None

>  <activity_id>  (82) 
94724

>  <standard_type>  (82) 
IC50

>  <target_chembl_id>  (82) 
CHEMBL205

>  <data_validity_comment>  (82) 
None

>  <published_value>  (82) 
47

>  <document_year>  (82) 
2002

>  <target_pref_name>  (82) 
Carbonic anhydrase II

>  <assay_chembl_id>  (82) 
CHEMBL657920

>  <standard_relation>  (82) 
=

>  <assay_description>  (82) 
Inhibitory activity against carbonic anhydrase II

>  <published_relation>  (82) 
=

>  <standard_value>  (82) 
47000

>  <qudt_units>  (82) 
http://www.openphacts.org/units/Nanomolar

>  <target_tax_id>  (82) 
9606

>  <bao_label>  (82) 
single protein format

>  <published_units>  (82) 
uM

>  <pchembl_value>  (82) 
4.33

>  <published_type>  (82) 
IC50

>  <activity_comment>  (82) 
None

$$$$

     RDKit          

 20 21  0  0  0  0  0  0  0  0999 V2000
    0.0000    0.0000    0.0000 C   0  0  0  0  0  0  0  0  0  0  0  0
    0.0000    0.0000    0.0000 N   0  0  0  0  0  0  0  0  0  0  0  0
    0.0000    0.0000    0.0000 C   0  0  0  0  0  0  0  0  0  0  0  0
    0.0000    0.0000    0.0000 C   0  0  0  0  0  0  0  0  0  0  0  0
    0.0000    0.0000    0.0000 C   0  0  0  0  0  0  0  0  0  0  0  0
    0.0000    0.0000    0.0000 N   0  0  0  0  0  0  0  0  0  0  0  0
    0.0000    0.0000    0.0000 C   0  0  0  0  0  0  0  0  0  0  0  0
    0.0000    0.0000    0.0000 O   0  0  0  0  0  0  0  0  0  0  0  0
    0.0000    0.0000    0.0000 C   0  0  0  0  0  0  0  0  0  0  0  0
    0.0000    0.0000    0.0000 C   0  0  0  0  0  0  0  0  0  0  0  0
    0.0000    0.0000    0.0000 C   0  0  0  0  0  0  0  0  0  0  0  0
    0.0000    0.0000    0.0000 C   0  0  0  0  0  0  0  0  0  0  0  0
    0.0000    0.0000    0.0000 C   0  0  0  0  0  0  0  0  0  0  0  0
    0.0000    0.0000    0.0000 S   0  0  0  0  0  0  0  0  0  0  0  0
    0.0000    0.0000    0.0000 C   0  0  0  0  0  0  0  0  0  0  0  0
    0.0000    0.0000    0.0000 S   0  0  0  0  0  0  0  0  0  0  0  0
    0.0000    0.0000    0.0000 S   0  0  0  0  0  0  0  0  0  0  0  0
    0.0000    0.0000    0.0000 O   0  0  0  0  0  0  0  0  0  0  0  0
    0.0000    0.0000    0.0000 O   0  0  0  0  0  0  0  0  0  0  0  0
    0.0000    0.0000    0.0000 N   0  0  0  0  0  0  0  0  0  0  0  0
  1  2  1  0
  2  3  1  0
  2  4  1  0
  4  5  1  0
  5  6  1  0
  6  7  1  0
  7  8  2  0
  7  9  1  0
  9 10  2  0
 10 11  1  0
 11 12  1  0
 12 13  2  0
 13 14  1  0
 14 15  1  0
 15 16  1  0
 13 17  1  0
 17 18  2  0
 17 19  2  0
 17 20  1  0
 16  9  1  0
 15 11  2  0
M  END
>  <pIC50>  (83) 
8.06

>  <ChEMBL_ID>  (83) 
CHEMBL555889

>  <document_journal>  (83) 
J. Med. Chem.

>  <bao_endpoint>  (83) 
BAO_0000190

>  <potential_duplicate>  (83) 
False

>  <uo_units>  (83) 
UO_0000065

>  <canonical_smiles>  (83) 
Cl.CN(C)CCNC(=O)c1cc2cc(sc2s1)S(=O)(=O)N

>  <parent_molecule_chembl_id>  (83) 
CHEMBL1196091

>  <assay_type>  (83) 
B

>  <src_id>  (83) 
1

>  <ligand_efficiency>  (83) 
{u'le': u'0.55', u'bei': u'24.16', u'sei': u'5.12', u'lle': u'7.36'}

>  <standard_flag>  (83) 
True

>  <molecule_chembl_id>  (83) 
CHEMBL555889

>  <target_organism>  (83) 
Homo sapiens

>  <standard_units>  (83) 
nM

>  <record_id>  (83) 
88094

>  <document_chembl_id>  (83) 
CHEMBL1125927

>  <bao_format>  (83) 
BAO_0000357

>  <data_validity_description>  (83) 
None

>  <activity_id>  (83) 
94813

>  <standard_type>  (83) 
IC50

>  <target_chembl_id>  (83) 
CHEMBL205

>  <data_validity_comment>  (83) 
None

>  <published_value>  (83) 
8.8E-9

>  <document_year>  (83) 
1991

>  <target_pref_name>  (83) 
Carbonic anhydrase II

>  <assay_chembl_id>  (83) 
CHEMBL656579

>  <standard_relation>  (83) 
=

>  <assay_description>  (83) 
In vitro inhibitory activity against human carbonic anhydrase II

>  <published_relation>  (83) 
=

>  <standard_value>  (83) 
8.8

>  <qudt_units>  (83) 
http://www.openphacts.org/units/Nanomolar

>  <target_tax_id>  (83) 
9606

>  <bao_label>  (83) 
single protein format

>  <published_units>  (83) 
M

>  <pchembl_value>  (83) 
8.06

>  <published_type>  (83) 
I50

>  <activity_comment>  (83) 
None

$$$$

     RDKit          

 21 22  0  0  0  0  0  0  0  0999 V2000
    0.0000    0.0000    0.0000 N   0  0  0  0  0  0  0  0  0  0  0  0
    0.0000    0.0000    0.0000 S   0  0  0  0  0  0  0  0  0  0  0  0
    0.0000    0.0000    0.0000 O   0  0  0  0  0  0  0  0  0  0  0  0
    0.0000    0.0000    0.0000 O   0  0  0  0  0  0  0  0  0  0  0  0
    0.0000    0.0000    0.0000 C   0  0  0  0  0  0  0  0  0  0  0  0
    0.0000    0.0000    0.0000 C   0  0  0  0  0  0  0  0  0  0  0  0
    0.0000    0.0000    0.0000 C   0  0  0  0  0  0  0  0  0  0  0  0
    0.0000    0.0000    0.0000 C   0  0  0  0  0  0  0  0  0  0  0  0
    0.0000    0.0000    0.0000 C   0  0  0  0  0  0  0  0  0  0  0  0
    0.0000    0.0000    0.0000 S   0  0  0  0  0  0  0  0  0  0  0  0
    0.0000    0.0000    0.0000 C   0  0  0  0  0  0  0  0  0  0  0  0
    0.0000    0.0000    0.0000 S   0  0  0  0  0  0  0  0  0  0  0  0
    0.0000    0.0000    0.0000 C   0  0  0  0  0  0  0  0  0  0  0  0
    0.0000    0.0000    0.0000 O   0  0  0  0  0  0  0  0  0  0  0  0
    0.0000    0.0000    0.0000 N   0  0  0  0  0  0  0  0  0  0  0  0
    0.0000    0.0000    0.0000 C   0  0  0  0  0  0  0  0  0  0  0  0
    0.0000    0.0000    0.0000 C   0  0  0  0  0  0  0  0  0  0  0  0
    0.0000    0.0000    0.0000 O   0  0  0  0  0  0  0  0  0  0  0  0
    0.0000    0.0000    0.0000 C   0  0  0  0  0  0  0  0  0  0  0  0
    0.0000    0.0000    0.0000 C   0  0  0  0  0  0  0  0  0  0  0  0
    0.0000    0.0000    0.0000 O   0  0  0  0  0  0  0  0  0  0  0  0
  1  2  1  0
  2  3  2  0
  2  4  2  0
  2  5  1  0
  5  6  2  0
  6  7  1  0
  7  8  1  0
  8  9  2  0
  9 10  1  0
 10 11  1  0
 11 12  1  0
  9 13  1  0
 13 14  2  0
 13 15  1  0
 15 16  1  0
 16 17  1  0
 17 18  1  0
 15 19  1  0
 19 20  1  0
 20 21  1  0
 12  5  1  0
 11  7  2  0
M  END
>  <pIC50>  (84) 
8.18

>  <ChEMBL_ID>  (84) 
CHEMBL51097

>  <document_journal>  (84) 
J. Med. Chem.

>  <bao_endpoint>  (84) 
BAO_0000190

>  <potential_duplicate>  (84) 
False

>  <uo_units>  (84) 
UO_0000065

>  <canonical_smiles>  (84) 
NS(=O)(=O)c1cc2cc(sc2s1)C(=O)N(CCO)CCO

>  <parent_molecule_chembl_id>  (84) 
CHEMBL51097

>  <assay_type>  (84) 
B

>  <src_id>  (84) 
1

>  <ligand_efficiency>  (84) 
{u'le': u'0.53', u'bei': u'23.34', u'sei': u'4.4', u'lle': u'8.49'}

>  <standard_flag>  (84) 
True

>  <molecule_chembl_id>  (84) 
CHEMBL51097

>  <target_organism>  (84) 
Homo sapiens

>  <standard_units>  (84) 
nM

>  <record_id>  (84) 
88090

>  <document_chembl_id>  (84) 
CHEMBL1125927

>  <bao_format>  (84) 
BAO_0000357

>  <data_validity_description>  (84) 
None

>  <activity_id>  (84) 
94817

>  <standard_type>  (84) 
IC50

>  <target_chembl_id>  (84) 
CHEMBL205

>  <data_validity_comment>  (84) 
None

>  <published_value>  (84) 
6.6E-9

>  <document_year>  (84) 
1991

>  <target_pref_name>  (84) 
Carbonic anhydrase II

>  <assay_chembl_id>  (84) 
CHEMBL656579

>  <standard_relation>  (84) 
=

>  <assay_description>  (84) 
In vitro inhibitory activity against human carbonic anhydrase II

>  <published_relation>  (84) 
=

>  <standard_value>  (84) 
6.6

>  <qudt_units>  (84) 
http://www.openphacts.org/units/Nanomolar

>  <target_tax_id>  (84) 
9606

>  <bao_label>  (84) 
single protein format

>  <published_units>  (84) 
M

>  <pchembl_value>  (84) 
8.18

>  <published_type>  (84) 
I50

>  <activity_comment>  (84) 
None

$$$$

     RDKit          

 14 15  0  0  0  0  0  0  0  0999 V2000
    0.0000    0.0000    0.0000 N   0  0  0  0  0  0  0  0  0  0  0  0
    0.0000    0.0000    0.0000 S   0  0  0  0  0  0  0  0  0  0  0  0
    0.0000    0.0000    0.0000 O   0  0  0  0  0  0  0  0  0  0  0  0
    0.0000    0.0000    0.0000 O   0  0  0  0  0  0  0  0  0  0  0  0
    0.0000    0.0000    0.0000 C   0  0  0  0  0  0  0  0  0  0  0  0
    0.0000    0.0000    0.0000 C   0  0  0  0  0  0  0  0  0  0  0  0
    0.0000    0.0000    0.0000 C   0  0  0  0  0  0  0  0  0  0  0  0
    0.0000    0.0000    0.0000 S   0  0  0  0  0  0  0  0  0  0  0  0
    0.0000    0.0000    0.0000 C   0  0  0  0  0  0  0  0  0  0  0  0
    0.0000    0.0000    0.0000 C   0  0  0  0  0  0  0  0  0  0  0  0
    0.0000    0.0000    0.0000 C   0  0  0  0  0  0  0  0  0  0  0  0
    0.0000    0.0000    0.0000 O   0  0  0  0  0  0  0  0  0  0  0  0
    0.0000    0.0000    0.0000 C   0  0  0  0  0  0  0  0  0  0  0  0
    0.0000    0.0000    0.0000 S   0  0  0  0  0  0  0  0  0  0  0  0
  1  2  1  0
  2  3  2  0
  2  4  2  0
  2  5  1  0
  5  6  2  0
  6  7  1  0
  7  8  1  0
  8  9  1  0
  9 10  1  0
 10 11  1  0
 11 12  2  0
 11 13  1  0
 13 14  1  0
 14  5  1  0
 13  7  2  0
M  END
>  <pIC50>  (85) 
8.46

>  <ChEMBL_ID>  (85) 
CHEMBL120418

>  <document_journal>  (85) 
J. Med. Chem.

>  <bao_endpoint>  (85) 
BAO_0000190

>  <potential_duplicate>  (85) 
True

>  <uo_units>  (85) 
UO_0000065

>  <canonical_smiles>  (85) 
NS(=O)(=O)c1cc2SCCC(=O)c2s1

>  <parent_molecule_chembl_id>  (85) 
CHEMBL120418

>  <assay_type>  (85) 
F

>  <src_id>  (85) 
1

>  <ligand_efficiency>  (85) 
None

>  <standard_flag>  (85) 
True

>  <molecule_chembl_id>  (85) 
CHEMBL120418

>  <target_organism>  (85) 
Homo sapiens

>  <standard_units>  (85) 
nM

>  <record_id>  (85) 
227746

>  <document_chembl_id>  (85) 
CHEMBL1135542

>  <bao_format>  (85) 
BAO_0000019

>  <data_validity_description>  (85) 
None

>  <activity_id>  (85) 
95700

>  <standard_type>  (85) 
IC50

>  <target_chembl_id>  (85) 
CHEMBL205

>  <data_validity_comment>  (85) 
None

>  <published_value>  (85) 
3.5

>  <document_year>  (85) 
2002

>  <target_pref_name>  (85) 
Carbonic anhydrase II

>  <assay_chembl_id>  (85) 
CHEMBL657921

>  <standard_relation>  (85) 
=

>  <assay_description>  (85) 
Inhibitory activity towards Carbonic anhydrase II

>  <published_relation>  (85) 
=

>  <standard_value>  (85) 
3.5

>  <qudt_units>  (85) 
http://www.openphacts.org/units/Nanomolar

>  <target_tax_id>  (85) 
9606

>  <bao_label>  (85) 
assay format

>  <published_units>  (85) 
nM

>  <pchembl_value>  (85) 
8.46

>  <published_type>  (85) 
IC50

>  <activity_comment>  (85) 
None

$$$$

     RDKit          

 22 24  0  0  0  0  0  0  0  0999 V2000
    0.0000    0.0000    0.0000 C   0  0  0  0  0  0  0  0  0  0  0  0
    0.0000    0.0000    0.0000 C   0  0  0  0  0  0  0  0  0  0  0  0
    0.0000    0.0000    0.0000 C   0  0  0  0  0  0  0  0  0  0  0  0
    0.0000    0.0000    0.0000 O   0  0  0  0  0  0  0  0  0  0  0  0
    0.0000    0.0000    0.0000 C   0  0  0  0  0  0  0  0  0  0  0  0
    0.0000    0.0000    0.0000 C   0  0  0  0  0  0  0  0  0  0  0  0
    0.0000    0.0000    0.0000 O   0  0  0  0  0  0  0  0  0  0  0  0
    0.0000    0.0000    0.0000 S   0  0  0  0  0  0  0  0  0  0  0  0
    0.0000    0.0000    0.0000 O   0  0  0  0  0  0  0  0  0  0  0  0
    0.0000    0.0000    0.0000 O   0  0  0  0  0  0  0  0  0  0  0  0
    0.0000    0.0000    0.0000 O   0  0  0  0  0  0  0  0  0  0  0  0
    0.0000    0.0000    0.0000 C   0  0  0  0  0  0  0  0  0  0  0  0
    0.0000    0.0000    0.0000 C   0  0  0  0  0  0  0  0  0  0  0  0
    0.0000    0.0000    0.0000 C   0  0  0  0  0  0  0  0  0  0  0  0
    0.0000    0.0000    0.0000 C   0  0  0  0  0  0  0  0  0  0  0  0
    0.0000    0.0000    0.0000 C   0  0  0  0  0  0  0  0  0  0  0  0
    0.0000    0.0000    0.0000 O   0  0  0  0  0  0  0  0  0  0  0  0
    0.0000    0.0000    0.0000 S   0  0  0  0  0  0  0  0  0  0  0  0
    0.0000    0.0000    0.0000 O   0  0  0  0  0  0  0  0  0  0  0  0
    0.0000    0.0000    0.0000 O   0  0  0  0  0  0  0  0  0  0  0  0
    0.0000    0.0000    0.0000 N   0  0  0  0  0  0  0  0  0  0  0  0
    0.0000    0.0000    0.0000 O   0  0  0  0  0  0  0  0  0  0  0  0
  1  2  1  0
  2  3  1  0
  2  4  1  0
  4  5  1  0
  5  6  1  0
  6  7  1  0
  7  8  1  0
  8  9  2  0
  8 10  2  0
  8 11  1  0
 11 12  1  0
 12 13  1  0
 13 14  1  0
 14 15  1  0
 15 16  1  0
 16 17  1  0
 17 18  1  0
 18 19  2  0
 18 20  2  0
 18 21  1  0
 15 22  1  0
 22  2  1  0
 15  5  1  0
 12  6  1  0
M  END
>  <pIC50>  (86) 
6.89

>  <ChEMBL_ID>  (86) 
CHEMBL120917

>  <document_journal>  (86) 
J. Med. Chem.

>  <bao_endpoint>  (86) 
BAO_0000190

>  <potential_duplicate>  (86) 
False

>  <uo_units>  (86) 
UO_0000065

>  <canonical_smiles>  (86) 
CC1(C)O[C@H]2[C@@H]3OS(=O)(=O)O[C@@H]3CC[C@@]2(COS(=O)(=O)N)O1

>  <parent_molecule_chembl_id>  (86) 
CHEMBL120917

>  <assay_type>  (86) 
B

>  <src_id>  (86) 
1

>  <ligand_efficiency>  (86) 
{u'le': u'0.43', u'bei': u'19.16', u'sei': u'4.38', u'lle': u'8.89'}

>  <standard_flag>  (86) 
True

>  <molecule_chembl_id>  (86) 
CHEMBL120917

>  <target_organism>  (86) 
Homo sapiens

>  <standard_units>  (86) 
nM

>  <record_id>  (86) 
227759

>  <document_chembl_id>  (86) 
CHEMBL1135542

>  <bao_format>  (86) 
BAO_0000357

>  <data_validity_description>  (86) 
None

>  <activity_id>  (86) 
95704

>  <standard_type>  (86) 
IC50

>  <target_chembl_id>  (86) 
CHEMBL205

>  <data_validity_comment>  (86) 
None

>  <published_value>  (86) 
130

>  <document_year>  (86) 
2002

>  <target_pref_name>  (86) 
Carbonic anhydrase II

>  <assay_chembl_id>  (86) 
CHEMBL657920

>  <standard_relation>  (86) 
=

>  <assay_description>  (86) 
Inhibitory activity against carbonic anhydrase II

>  <published_relation>  (86) 
=

>  <standard_value>  (86) 
130

>  <qudt_units>  (86) 
http://www.openphacts.org/units/Nanomolar

>  <target_tax_id>  (86) 
9606

>  <bao_label>  (86) 
single protein format

>  <published_units>  (86) 
nM

>  <pchembl_value>  (86) 
6.89

>  <published_type>  (86) 
IC50

>  <activity_comment>  (86) 
None

$$$$

     RDKit          

 19 20  0  0  0  0  0  0  0  0999 V2000
    0.0000    0.0000    0.0000 N   0  0  0  0  0  0  0  0  0  0  0  0
    0.0000    0.0000    0.0000 S   0  0  0  0  0  0  0  0  0  0  0  0
    0.0000    0.0000    0.0000 O   0  0  0  0  0  0  0  0  0  0  0  0
    0.0000    0.0000    0.0000 O   0  0  0  0  0  0  0  0  0  0  0  0
    0.0000    0.0000    0.0000 C   0  0  0  0  0  0  0  0  0  0  0  0
    0.0000    0.0000    0.0000 C   0  0  0  0  0  0  0  0  0  0  0  0
    0.0000    0.0000    0.0000 C   0  0  0  0  0  0  0  0  0  0  0  0
    0.0000    0.0000    0.0000 C   0  0  0  0  0  0  0  0  0  0  0  0
    0.0000    0.0000    0.0000 C   0  0  0  0  0  0  0  0  0  0  0  0
    0.0000    0.0000    0.0000 C   0  0  0  0  0  0  0  0  0  0  0  0
    0.0000    0.0000    0.0000 N   0  0  0  0  0  0  0  0  0  0  0  0
    0.0000    0.0000    0.0000 C   0  0  0  0  0  0  0  0  0  0  0  0
    0.0000    0.0000    0.0000 C   0  0  0  0  0  0  0  0  0  0  0  0
    0.0000    0.0000    0.0000 C   0  0  0  0  0  0  0  0  0  0  0  0
    0.0000    0.0000    0.0000 C   0  0  0  0  0  0  0  0  0  0  0  0
    0.0000    0.0000    0.0000 O   0  0  0  0  0  0  0  0  0  0  0  0
    0.0000    0.0000    0.0000 S   0  0  0  0  0  0  0  0  0  0  0  0
    0.0000    0.0000    0.0000 C   0  0  0  0  0  0  0  0  0  0  0  0
    0.0000    0.0000    0.0000 S   0  0  0  0  0  0  0  0  0  0  0  0
  1  2  1  0
  2  3  2  0
  2  4  2  0
  2  5  1  0
  5  6  2  0
  6  7  1  0
  7  8  1  0
  8  9  2  0
  9 10  1  0
 10 11  1  0
 11 12  1  0
 12 13  1  0
 13 14  1  0
 14 15  1  0
 15 16  1  0
  9 17  1  0
 17 18  1  0
 18 19  1  0
 19  5  1  0
 18  7  2  0
M  END
>  <pIC50>  (87) 
8.52

>  <ChEMBL_ID>  (87) 
CHEMBL555542

>  <document_journal>  (87) 
J. Med. Chem.

>  <bao_endpoint>  (87) 
BAO_0000190

>  <potential_duplicate>  (87) 
False

>  <uo_units>  (87) 
UO_0000065

>  <canonical_smiles>  (87) 
Cl.NS(=O)(=O)c1cc2cc(CNCCCCO)sc2s1

>  <parent_molecule_chembl_id>  (87) 
CHEMBL1195890

>  <assay_type>  (87) 
B

>  <src_id>  (87) 
1

>  <ligand_efficiency>  (87) 
{u'le': u'0.61', u'bei': u'26.6', u'sei': u'5.42', u'lle': u'7.74'}

>  <standard_flag>  (87) 
True

>  <molecule_chembl_id>  (87) 
CHEMBL555542

>  <target_organism>  (87) 
Homo sapiens

>  <standard_units>  (87) 
nM

>  <record_id>  (87) 
88101

>  <document_chembl_id>  (87) 
CHEMBL1125927

>  <bao_format>  (87) 
BAO_0000357

>  <data_validity_description>  (87) 
None

>  <activity_id>  (87) 
96864

>  <standard_type>  (87) 
IC50

>  <target_chembl_id>  (87) 
CHEMBL205

>  <data_validity_comment>  (87) 
None

>  <published_value>  (87) 
3E-9

>  <document_year>  (87) 
1991

>  <target_pref_name>  (87) 
Carbonic anhydrase II

>  <assay_chembl_id>  (87) 
CHEMBL656579

>  <standard_relation>  (87) 
=

>  <assay_description>  (87) 
In vitro inhibitory activity against human carbonic anhydrase II

>  <published_relation>  (87) 
=

>  <standard_value>  (87) 
3

>  <qudt_units>  (87) 
http://www.openphacts.org/units/Nanomolar

>  <target_tax_id>  (87) 
9606

>  <bao_label>  (87) 
single protein format

>  <published_units>  (87) 
M

>  <pchembl_value>  (87) 
8.52

>  <published_type>  (87) 
I50

>  <activity_comment>  (87) 
None

$$$$

     RDKit          

 20 21  0  0  0  0  0  0  0  0999 V2000
    0.0000    0.0000    0.0000 C   0  0  0  0  0  0  0  0  0  0  0  0
    0.0000    0.0000    0.0000 N   0  0  0  0  0  0  0  0  0  0  0  0
    0.0000    0.0000    0.0000 C   0  0  0  0  0  0  0  0  0  0  0  0
    0.0000    0.0000    0.0000 S   0  0  0  0  0  0  0  0  0  0  0  0
    0.0000    0.0000    0.0000 O   0  0  0  0  0  0  0  0  0  0  0  0
    0.0000    0.0000    0.0000 O   0  0  0  0  0  0  0  0  0  0  0  0
    0.0000    0.0000    0.0000 O   0  0  0  0  0  0  0  0  0  0  0  0
    0.0000    0.0000    0.0000 C   0  0  0  0  0  0  0  0  0  0  0  0
    0.0000    0.0000    0.0000 C   0  0  0  0  0  0  0  0  0  0  0  0
    0.0000    0.0000    0.0000 C   0  0  0  0  0  0  0  0  0  0  0  0
    0.0000    0.0000    0.0000 C   0  0  0  0  0  0  0  0  0  0  0  0
    0.0000    0.0000    0.0000 N   0  0  0  0  0  0  0  0  0  0  0  0
    0.0000    0.0000    0.0000 C   0  0  0  0  0  0  0  0  0  0  0  0
    0.0000    0.0000    0.0000 S   0  0  0  0  0  0  0  0  0  0  0  0
    0.0000    0.0000    0.0000 C   0  0  0  0  0  0  0  0  0  0  0  0
    0.0000    0.0000    0.0000 C   0  0  0  0  0  0  0  0  0  0  0  0
    0.0000    0.0000    0.0000 S   0  0  0  0  0  0  0  0  0  0  0  0
    0.0000    0.0000    0.0000 O   0  0  0  0  0  0  0  0  0  0  0  0
    0.0000    0.0000    0.0000 O   0  0  0  0  0  0  0  0  0  0  0  0
    0.0000    0.0000    0.0000 N   0  0  0  0  0  0  0  0  0  0  0  0
  1  2  1  0
  2  3  1  0
  2  4  1  0
  4  5  2  0
  4  6  2  0
  4  7  1  0
  7  8  1  0
  8  9  2  0
  9 10  1  0
 10 11  2  0
 11 12  1  0
 12 13  2  0
 13 14  1  0
 14 15  1  0
 15 16  2  0
 13 17  1  0
 17 18  2  0
 17 19  2  0
 17 20  1  0
 16  8  1  0
 15 11  1  0
M  END
>  <pIC50>  (88) 
8.92

>  <ChEMBL_ID>  (88) 
CHEMBL120728

>  <document_journal>  (88) 
J. Med. Chem.

>  <bao_endpoint>  (88) 
BAO_0000190

>  <potential_duplicate>  (88) 
False

>  <uo_units>  (88) 
UO_0000065

>  <canonical_smiles>  (88) 
CN(C)S(=O)(=O)Oc1ccc2nc(sc2c1)S(=O)(=O)N

>  <parent_molecule_chembl_id>  (88) 
CHEMBL120728

>  <assay_type>  (88) 
B

>  <src_id>  (88) 
1

>  <ligand_efficiency>  (88) 
{u'le': u'0.61', u'bei': u'26.44', u'sei': u'5.42', u'lle': u'8.61'}

>  <standard_flag>  (88) 
True

>  <molecule_chembl_id>  (88) 
CHEMBL120728

>  <target_organism>  (88) 
Homo sapiens

>  <standard_units>  (88) 
nM

>  <record_id>  (88) 
227765

>  <document_chembl_id>  (88) 
CHEMBL1135542

>  <bao_format>  (88) 
BAO_0000357

>  <data_validity_description>  (88) 
None

>  <activity_id>  (88) 
97788

>  <standard_type>  (88) 
IC50

>  <target_chembl_id>  (88) 
CHEMBL205

>  <data_validity_comment>  (88) 
None

>  <published_value>  (88) 
1.2

>  <document_year>  (88) 
2002

>  <target_pref_name>  (88) 
Carbonic anhydrase II

>  <assay_chembl_id>  (88) 
CHEMBL657920

>  <standard_relation>  (88) 
=

>  <assay_description>  (88) 
Inhibitory activity against carbonic anhydrase II

>  <published_relation>  (88) 
=

>  <standard_value>  (88) 
1.2

>  <qudt_units>  (88) 
http://www.openphacts.org/units/Nanomolar

>  <target_tax_id>  (88) 
9606

>  <bao_label>  (88) 
single protein format

>  <published_units>  (88) 
nM

>  <pchembl_value>  (88) 
8.92

>  <published_type>  (88) 
IC50

>  <activity_comment>  (88) 
None

$$$$

     RDKit          

 14 14  0  0  0  0  0  0  0  0999 V2000
    0.0000    0.0000    0.0000 C   0  0  0  0  0  0  0  0  0  0  0  0
    0.0000    0.0000    0.0000 N   0  0  0  0  0  0  0  0  0  0  0  0
    0.0000    0.0000    0.0000 N   0  0  0  0  0  0  0  0  0  0  0  0
    0.0000    0.0000    0.0000 C   0  0  0  0  0  0  0  0  0  0  0  0
    0.0000    0.0000    0.0000 S   0  0  0  0  0  0  0  0  0  0  0  0
    0.0000    0.0000    0.0000 C   0  0  0  0  0  0  0  0  0  0  0  0
    0.0000    0.0000    0.0000 N   0  0  0  0  0  0  0  0  0  0  0  0
    0.0000    0.0000    0.0000 C   0  0  0  0  0  0  0  0  0  0  0  0
    0.0000    0.0000    0.0000 O   0  0  0  0  0  0  0  0  0  0  0  0
    0.0000    0.0000    0.0000 C   0  0  0  0  0  0  0  0  0  0  0  0
    0.0000    0.0000    0.0000 S   0  0  0  0  0  0  0  0  0  0  0  0
    0.0000    0.0000    0.0000 O   0  0  0  0  0  0  0  0  0  0  0  0
    0.0000    0.0000    0.0000 O   0  0  0  0  0  0  0  0  0  0  0  0
    0.0000    0.0000    0.0000 N   0  0  0  0  0  0  0  0  0  0  0  0
  1  2  1  0
  2  3  1  0
  3  4  2  0
  4  5  1  0
  5  6  1  0
  6  7  2  0
  7  8  1  0
  8  9  2  0
  8 10  1  0
  4 11  1  0
 11 12  2  0
 11 13  2  0
 11 14  1  0
  6  2  1  0
M  END
>  <pIC50>  (89) 
7.84333333333

>  <ChEMBL_ID>  (89) 
CHEMBL19

>  <document_journal>  (89) 
J. Med. Chem.

>  <bao_endpoint>  (89) 
BAO_0000190

>  <potential_duplicate>  (89) 
True

>  <uo_units>  (89) 
UO_0000065

>  <canonical_smiles>  (89) 
CN1N=C(S/C/1=N/C(=O)C)S(=O)(=O)N

>  <parent_molecule_chembl_id>  (89) 
CHEMBL19

>  <assay_type>  (89) 
B

>  <src_id>  (89) 
1

>  <ligand_efficiency>  (89) 
{u'le': u'0.75', u'bei': u'32.5', u'sei': u'5.53', u'lle': u'7.65'}

>  <standard_flag>  (89) 
True

>  <molecule_chembl_id>  (89) 
CHEMBL19

>  <target_organism>  (89) 
Homo sapiens

>  <standard_units>  (89) 
nM

>  <record_id>  (89) 
227762

>  <document_chembl_id>  (89) 
CHEMBL1135542

>  <bao_format>  (89) 
BAO_0000357

>  <data_validity_description>  (89) 
None

>  <activity_id>  (89) 
97790

>  <standard_type>  (89) 
IC50

>  <target_chembl_id>  (89) 
CHEMBL205

>  <data_validity_comment>  (89) 
None

>  <published_value>  (89) 
21

>  <document_year>  (89) 
2002

>  <target_pref_name>  (89) 
Carbonic anhydrase II

>  <assay_chembl_id>  (89) 
CHEMBL657920

>  <standard_relation>  (89) 
=

>  <assay_description>  (89) 
Inhibitory activity against carbonic anhydrase II

>  <published_relation>  (89) 
=

>  <standard_value>  (89) 
21

>  <qudt_units>  (89) 
http://www.openphacts.org/units/Nanomolar

>  <target_tax_id>  (89) 
9606

>  <bao_label>  (89) 
single protein format

>  <published_units>  (89) 
nM

>  <pchembl_value>  (89) 
7.68

>  <published_type>  (89) 
IC50

>  <activity_comment>  (89) 
None

$$$$

     RDKit          

 18 19  0  0  0  0  0  0  0  0999 V2000
    0.0000    0.0000    0.0000 C   0  0  0  0  0  0  0  0  0  0  0  0
    0.0000    0.0000    0.0000 C   0  0  0  0  0  0  0  0  0  0  0  0
    0.0000    0.0000    0.0000 C   0  0  0  0  0  0  0  0  0  0  0  0
    0.0000    0.0000    0.0000 C   0  0  0  0  0  0  0  0  0  0  0  0
    0.0000    0.0000    0.0000 N   0  0  0  0  0  0  0  0  0  0  0  0
    0.0000    0.0000    0.0000 C   0  0  0  0  0  0  0  0  0  0  0  0
    0.0000    0.0000    0.0000 C   0  0  0  0  0  0  0  0  0  0  0  0
    0.0000    0.0000    0.0000 C   0  0  0  0  0  0  0  0  0  0  0  0
    0.0000    0.0000    0.0000 C   0  0  0  0  0  0  0  0  0  0  0  0
    0.0000    0.0000    0.0000 C   0  0  0  0  0  0  0  0  0  0  0  0
    0.0000    0.0000    0.0000 C   0  0  0  0  0  0  0  0  0  0  0  0
    0.0000    0.0000    0.0000 S   0  0  0  0  0  0  0  0  0  0  0  0
    0.0000    0.0000    0.0000 C   0  0  0  0  0  0  0  0  0  0  0  0
    0.0000    0.0000    0.0000 S   0  0  0  0  0  0  0  0  0  0  0  0
    0.0000    0.0000    0.0000 S   0  0  0  0  0  0  0  0  0  0  0  0
    0.0000    0.0000    0.0000 O   0  0  0  0  0  0  0  0  0  0  0  0
    0.0000    0.0000    0.0000 O   0  0  0  0  0  0  0  0  0  0  0  0
    0.0000    0.0000    0.0000 N   0  0  0  0  0  0  0  0  0  0  0  0
  1  2  1  0
  2  3  1  0
  2  4  1  0
  2  5  1  0
  5  6  1  0
  6  7  1  0
  7  8  2  0
  8  9  1  0
  9 10  1  0
 10 11  2  0
 11 12  1  0
 12 13  1  0
 13 14  1  0
 11 15  1  0
 15 16  2  0
 15 17  2  0
 15 18  1  0
 14  7  1  0
 13  9  2  0
M  END
>  <pIC50>  (90) 
8.0

>  <ChEMBL_ID>  (90) 
CHEMBL539259

>  <document_journal>  (90) 
J. Med. Chem.

>  <bao_endpoint>  (90) 
BAO_0000190

>  <potential_duplicate>  (90) 
False

>  <uo_units>  (90) 
UO_0000065

>  <canonical_smiles>  (90) 
Cl.CC(C)(C)NCc1cc2cc(sc2s1)S(=O)(=O)N

>  <parent_molecule_chembl_id>  (90) 
CHEMBL1189669

>  <assay_type>  (90) 
B

>  <src_id>  (90) 
1

>  <ligand_efficiency>  (90) 
{u'le': u'0.61', u'bei': u'26.28', u'sei': u'5.84', u'lle': u'6.39'}

>  <standard_flag>  (90) 
True

>  <molecule_chembl_id>  (90) 
CHEMBL539259

>  <target_organism>  (90) 
Homo sapiens

>  <standard_units>  (90) 
nM

>  <record_id>  (90) 
88100

>  <document_chembl_id>  (90) 
CHEMBL1125927

>  <bao_format>  (90) 
BAO_0000357

>  <data_validity_description>  (90) 
None

>  <activity_id>  (90) 
97941

>  <standard_type>  (90) 
IC50

>  <target_chembl_id>  (90) 
CHEMBL205

>  <data_validity_comment>  (90) 
None

>  <published_value>  (90) 
1E-8

>  <document_year>  (90) 
1991

>  <target_pref_name>  (90) 
Carbonic anhydrase II

>  <assay_chembl_id>  (90) 
CHEMBL656580

>  <standard_relation>  (90) 
=

>  <assay_description>  (90) 
The compound was tested for in vitro inhibitory activity against human carbonic anhydrase II. 

>  <published_relation>  (90) 
=

>  <standard_value>  (90) 
10

>  <qudt_units>  (90) 
http://www.openphacts.org/units/Nanomolar

>  <target_tax_id>  (90) 
9606

>  <bao_label>  (90) 
single protein format

>  <published_units>  (90) 
M

>  <pchembl_value>  (90) 
8

>  <published_type>  (90) 
I50

>  <activity_comment>  (90) 
None

$$$$

     RDKit          

 25 26  0  0  0  0  0  0  0  0999 V2000
    0.0000    0.0000    0.0000 C   0  0  0  0  0  0  0  0  0  0  0  0
    0.0000    0.0000    0.0000 O   0  0  0  0  0  0  0  0  0  0  0  0
    0.0000    0.0000    0.0000 C   0  0  0  0  0  0  0  0  0  0  0  0
    0.0000    0.0000    0.0000 C   0  0  0  0  0  0  0  0  0  0  0  0
    0.0000    0.0000    0.0000 O   0  0  0  0  0  0  0  0  0  0  0  0
    0.0000    0.0000    0.0000 C   0  0  0  0  0  0  0  0  0  0  0  0
    0.0000    0.0000    0.0000 C   0  0  0  0  0  0  0  0  0  0  0  0
    0.0000    0.0000    0.0000 N   0  0  0  0  0  0  0  0  0  0  0  0
    0.0000    0.0000    0.0000 C   0  0  0  0  0  0  0  0  0  0  0  0
    0.0000    0.0000    0.0000 C   0  0  0  0  0  0  0  0  0  0  0  0
    0.0000    0.0000    0.0000 O   0  0  0  0  0  0  0  0  0  0  0  0
    0.0000    0.0000    0.0000 C   0  0  0  0  0  0  0  0  0  0  0  0
    0.0000    0.0000    0.0000 C   0  0  0  0  0  0  0  0  0  0  0  0
    0.0000    0.0000    0.0000 C   0  0  0  0  0  0  0  0  0  0  0  0
    0.0000    0.0000    0.0000 C   0  0  0  0  0  0  0  0  0  0  0  0
    0.0000    0.0000    0.0000 C   0  0  0  0  0  0  0  0  0  0  0  0
    0.0000    0.0000    0.0000 C   0  0  0  0  0  0  0  0  0  0  0  0
    0.0000    0.0000    0.0000 C   0  0  0  0  0  0  0  0  0  0  0  0
    0.0000    0.0000    0.0000 S   0  0  0  0  0  0  0  0  0  0  0  0
    0.0000    0.0000    0.0000 C   0  0  0  0  0  0  0  0  0  0  0  0
    0.0000    0.0000    0.0000 S   0  0  0  0  0  0  0  0  0  0  0  0
    0.0000    0.0000    0.0000 S   0  0  0  0  0  0  0  0  0  0  0  0
    0.0000    0.0000    0.0000 O   0  0  0  0  0  0  0  0  0  0  0  0
    0.0000    0.0000    0.0000 O   0  0  0  0  0  0  0  0  0  0  0  0
    0.0000    0.0000    0.0000 N   0  0  0  0  0  0  0  0  0  0  0  0
  1  2  1  0
  2  3  1  0
  3  4  1  0
  4  5  1  0
  5  6  1  0
  6  7  1  0
  7  8  1  0
  8  9  1  0
  9 10  1  0
 10 11  1  0
 11 12  1  0
  8 13  1  0
 13 14  1  0
 14 15  2  0
 15 16  1  0
 16 17  1  0
 17 18  2  0
 18 19  1  0
 19 20  1  0
 20 21  1  0
 18 22  1  0
 22 23  2  0
 22 24  2  0
 22 25  1  0
 21 14  1  0
 20 16  2  0
M  END
>  <pIC50>  (91) 
8.55

>  <ChEMBL_ID>  (91) 
CHEMBL543559

>  <document_journal>  (91) 
J. Med. Chem.

>  <bao_endpoint>  (91) 
BAO_0000190

>  <potential_duplicate>  (91) 
False

>  <uo_units>  (91) 
UO_0000065

>  <canonical_smiles>  (91) 
Cl.COCCOCCN(CCOC)Cc1cc2cc(sc2s1)S(=O)(=O)N

>  <parent_molecule_chembl_id>  (91) 
CHEMBL1192338

>  <assay_type>  (91) 
B

>  <src_id>  (91) 
1

>  <ligand_efficiency>  (91) 
{u'le': u'0.47', u'bei': u'20.93', u'sei': u'5.48', u'lle': u'7.73'}

>  <standard_flag>  (91) 
True

>  <molecule_chembl_id>  (91) 
CHEMBL543559

>  <target_organism>  (91) 
Homo sapiens

>  <standard_units>  (91) 
nM

>  <record_id>  (91) 
88082

>  <document_chembl_id>  (91) 
CHEMBL1125927

>  <bao_format>  (91) 
BAO_0000357

>  <data_validity_description>  (91) 
None

>  <activity_id>  (91) 
97946

>  <standard_type>  (91) 
IC50

>  <target_chembl_id>  (91) 
CHEMBL205

>  <data_validity_comment>  (91) 
None

>  <published_value>  (91) 
2.8E-9

>  <document_year>  (91) 
1991

>  <target_pref_name>  (91) 
Carbonic anhydrase II

>  <assay_chembl_id>  (91) 
CHEMBL656579

>  <standard_relation>  (91) 
=

>  <assay_description>  (91) 
In vitro inhibitory activity against human carbonic anhydrase II

>  <published_relation>  (91) 
=

>  <standard_value>  (91) 
2.8

>  <qudt_units>  (91) 
http://www.openphacts.org/units/Nanomolar

>  <target_tax_id>  (91) 
9606

>  <bao_label>  (91) 
single protein format

>  <published_units>  (91) 
M

>  <pchembl_value>  (91) 
8.55

>  <published_type>  (91) 
I50

>  <activity_comment>  (91) 
None

$$$$

     RDKit          

 24 25  0  0  0  0  0  0  0  0999 V2000
    0.0000    0.0000    0.0000 C   0  0  0  0  0  0  0  0  0  0  0  0
    0.0000    0.0000    0.0000 O   0  0  0  0  0  0  0  0  0  0  0  0
    0.0000    0.0000    0.0000 C   0  0  0  0  0  0  0  0  0  0  0  0
    0.0000    0.0000    0.0000 C   0  0  0  0  0  0  0  0  0  0  0  0
    0.0000    0.0000    0.0000 O   0  0  0  0  0  0  0  0  0  0  0  0
    0.0000    0.0000    0.0000 C   0  0  0  0  0  0  0  0  0  0  0  0
    0.0000    0.0000    0.0000 C   0  0  0  0  0  0  0  0  0  0  0  0
    0.0000    0.0000    0.0000 N   0  0  0  0  0  0  0  0  0  0  0  0
    0.0000    0.0000    0.0000 C   0  0  0  0  0  0  0  0  0  0  0  0
    0.0000    0.0000    0.0000 C   0  0  0  0  0  0  0  0  0  0  0  0
    0.0000    0.0000    0.0000 O   0  0  0  0  0  0  0  0  0  0  0  0
    0.0000    0.0000    0.0000 C   0  0  0  0  0  0  0  0  0  0  0  0
    0.0000    0.0000    0.0000 C   0  0  0  0  0  0  0  0  0  0  0  0
    0.0000    0.0000    0.0000 C   0  0  0  0  0  0  0  0  0  0  0  0
    0.0000    0.0000    0.0000 C   0  0  0  0  0  0  0  0  0  0  0  0
    0.0000    0.0000    0.0000 C   0  0  0  0  0  0  0  0  0  0  0  0
    0.0000    0.0000    0.0000 C   0  0  0  0  0  0  0  0  0  0  0  0
    0.0000    0.0000    0.0000 S   0  0  0  0  0  0  0  0  0  0  0  0
    0.0000    0.0000    0.0000 C   0  0  0  0  0  0  0  0  0  0  0  0
    0.0000    0.0000    0.0000 S   0  0  0  0  0  0  0  0  0  0  0  0
    0.0000    0.0000    0.0000 S   0  0  0  0  0  0  0  0  0  0  0  0
    0.0000    0.0000    0.0000 O   0  0  0  0  0  0  0  0  0  0  0  0
    0.0000    0.0000    0.0000 O   0  0  0  0  0  0  0  0  0  0  0  0
    0.0000    0.0000    0.0000 N   0  0  0  0  0  0  0  0  0  0  0  0
  1  2  1  0
  2  3  1  0
  3  4  1  0
  4  5  1  0
  5  6  1  0
  6  7  1  0
  7  8  1  0
  8  9  1  0
  9 10  1  0
 10 11  1  0
 11 12  1  0
  8 13  1  0
 13 14  2  0
 14 15  1  0
 15 16  1  0
 16 17  2  0
 17 18  1  0
 18 19  1  0
 19 20  1  0
 17 21  1  0
 21 22  2  0
 21 23  2  0
 21 24  1  0
 20 13  1  0
 19 15  2  0
M  END
>  <pIC50>  (92) 
8.55

>  <ChEMBL_ID>  (92) 
CHEMBL120046

>  <document_journal>  (92) 
J. Med. Chem.

>  <bao_endpoint>  (92) 
BAO_0000190

>  <potential_duplicate>  (92) 
False

>  <uo_units>  (92) 
UO_0000065

>  <canonical_smiles>  (92) 
COCCOCCN(CCOC)c1cc2cc(sc2s1)S(=O)(=O)N

>  <parent_molecule_chembl_id>  (92) 
CHEMBL120046

>  <assay_type>  (92) 
B

>  <src_id>  (92) 
1

>  <ligand_efficiency>  (92) 
{u'le': u'0.49', u'bei': u'21.68', u'sei': u'5.48', u'lle': u'7.59'}

>  <standard_flag>  (92) 
True

>  <molecule_chembl_id>  (92) 
CHEMBL120046

>  <target_organism>  (92) 
Homo sapiens

>  <standard_units>  (92) 
nM

>  <record_id>  (92) 
227755

>  <document_chembl_id>  (92) 
CHEMBL1135542

>  <bao_format>  (92) 
BAO_0000357

>  <data_validity_description>  (92) 
None

>  <activity_id>  (92) 
98812

>  <standard_type>  (92) 
IC50

>  <target_chembl_id>  (92) 
CHEMBL205

>  <data_validity_comment>  (92) 
None

>  <published_value>  (92) 
2.8

>  <document_year>  (92) 
2002

>  <target_pref_name>  (92) 
Carbonic anhydrase II

>  <assay_chembl_id>  (92) 
CHEMBL657920

>  <standard_relation>  (92) 
=

>  <assay_description>  (92) 
Inhibitory activity against carbonic anhydrase II

>  <published_relation>  (92) 
=

>  <standard_value>  (92) 
2.8

>  <qudt_units>  (92) 
http://www.openphacts.org/units/Nanomolar

>  <target_tax_id>  (92) 
9606

>  <bao_label>  (92) 
single protein format

>  <published_units>  (92) 
nM

>  <pchembl_value>  (92) 
8.55

>  <published_type>  (92) 
IC50

>  <activity_comment>  (92) 
None

$$$$

     RDKit          

 20 21  0  0  0  0  0  0  0  0999 V2000
    0.0000    0.0000    0.0000 C   0  0  0  0  0  0  0  0  0  0  0  0
    0.0000    0.0000    0.0000 S   0  0  0  0  0  0  0  0  0  0  0  0
    0.0000    0.0000    0.0000 O   0  0  0  0  0  0  0  0  0  0  0  0
    0.0000    0.0000    0.0000 C   0  0  0  0  0  0  0  0  0  0  0  0
    0.0000    0.0000    0.0000 C   0  0  0  0  0  0  0  0  0  0  0  0
    0.0000    0.0000    0.0000 N   0  0  0  0  0  0  0  0  0  0  0  0
    0.0000    0.0000    0.0000 C   0  0  0  0  0  0  0  0  0  0  0  0
    0.0000    0.0000    0.0000 O   0  0  0  0  0  0  0  0  0  0  0  0
    0.0000    0.0000    0.0000 C   0  0  0  0  0  0  0  0  0  0  0  0
    0.0000    0.0000    0.0000 C   0  0  0  0  0  0  0  0  0  0  0  0
    0.0000    0.0000    0.0000 C   0  0  0  0  0  0  0  0  0  0  0  0
    0.0000    0.0000    0.0000 C   0  0  0  0  0  0  0  0  0  0  0  0
    0.0000    0.0000    0.0000 C   0  0  0  0  0  0  0  0  0  0  0  0
    0.0000    0.0000    0.0000 S   0  0  0  0  0  0  0  0  0  0  0  0
    0.0000    0.0000    0.0000 C   0  0  0  0  0  0  0  0  0  0  0  0
    0.0000    0.0000    0.0000 S   0  0  0  0  0  0  0  0  0  0  0  0
    0.0000    0.0000    0.0000 S   0  0  0  0  0  0  0  0  0  0  0  0
    0.0000    0.0000    0.0000 O   0  0  0  0  0  0  0  0  0  0  0  0
    0.0000    0.0000    0.0000 O   0  0  0  0  0  0  0  0  0  0  0  0
    0.0000    0.0000    0.0000 N   0  0  0  0  0  0  0  0  0  0  0  0
  1  2  1  0
  2  3  1  0
  2  4  1  0
  4  5  1  0
  5  6  1  0
  6  7  1  0
  7  8  2  0
  7  9  1  0
  9 10  2  0
 10 11  1  0
 11 12  1  0
 12 13  2  0
 13 14  1  0
 14 15  1  0
 15 16  1  0
 13 17  1  0
 17 18  2  0
 17 19  2  0
 17 20  1  0
 16  9  1  0
 15 11  2  0
M  CHG  2   2   1   3  -1
M  END
>  <pIC50>  (93) 
8.34

>  <ChEMBL_ID>  (93) 
CHEMBL53964

>  <document_journal>  (93) 
J. Med. Chem.

>  <bao_endpoint>  (93) 
BAO_0000190

>  <potential_duplicate>  (93) 
False

>  <uo_units>  (93) 
UO_0000065

>  <canonical_smiles>  (93) 
C[S+]([O-])CCNC(=O)c1cc2cc(sc2s1)S(=O)(=O)N

>  <parent_molecule_chembl_id>  (93) 
CHEMBL53964

>  <assay_type>  (93) 
B

>  <src_id>  (93) 
1

>  <ligand_efficiency>  (93) 
{u'le': u'0.57', u'bei': u'23.65', u'sei': u'4.38', u'lle': u'8.28'}

>  <standard_flag>  (93) 
True

>  <molecule_chembl_id>  (93) 
CHEMBL53964

>  <target_organism>  (93) 
Homo sapiens

>  <standard_units>  (93) 
nM

>  <record_id>  (93) 
88092

>  <document_chembl_id>  (93) 
CHEMBL1125927

>  <bao_format>  (93) 
BAO_0000357

>  <data_validity_description>  (93) 
None

>  <activity_id>  (93) 
98933

>  <standard_type>  (93) 
IC50

>  <target_chembl_id>  (93) 
CHEMBL205

>  <data_validity_comment>  (93) 
None

>  <published_value>  (93) 
4.6E-9

>  <document_year>  (93) 
1991

>  <target_pref_name>  (93) 
Carbonic anhydrase II

>  <assay_chembl_id>  (93) 
CHEMBL656579

>  <standard_relation>  (93) 
=

>  <assay_description>  (93) 
In vitro inhibitory activity against human carbonic anhydrase II

>  <published_relation>  (93) 
=

>  <standard_value>  (93) 
4.6

>  <qudt_units>  (93) 
http://www.openphacts.org/units/Nanomolar

>  <target_tax_id>  (93) 
9606

>  <bao_label>  (93) 
single protein format

>  <published_units>  (93) 
M

>  <pchembl_value>  (93) 
8.34

>  <published_type>  (93) 
I50

>  <activity_comment>  (93) 
None

$$$$

     RDKit          

 28 29  0  0  0  0  0  0  0  0999 V2000
    0.0000    0.0000    0.0000 C   0  0  0  0  0  0  0  0  0  0  0  0
    0.0000    0.0000    0.0000 O   0  0  0  0  0  0  0  0  0  0  0  0
    0.0000    0.0000    0.0000 C   0  0  0  0  0  0  0  0  0  0  0  0
    0.0000    0.0000    0.0000 C   0  0  0  0  0  0  0  0  0  0  0  0
    0.0000    0.0000    0.0000 O   0  0  0  0  0  0  0  0  0  0  0  0
    0.0000    0.0000    0.0000 C   0  0  0  0  0  0  0  0  0  0  0  0
    0.0000    0.0000    0.0000 C   0  0  0  0  0  0  0  0  0  0  0  0
    0.0000    0.0000    0.0000 N   0  0  0  0  0  0  0  0  0  0  0  0
    0.0000    0.0000    0.0000 C   0  0  0  0  0  0  0  0  0  0  0  0
    0.0000    0.0000    0.0000 C   0  0  0  0  0  0  0  0  0  0  0  0
    0.0000    0.0000    0.0000 O   0  0  0  0  0  0  0  0  0  0  0  0
    0.0000    0.0000    0.0000 C   0  0  0  0  0  0  0  0  0  0  0  0
    0.0000    0.0000    0.0000 C   0  0  0  0  0  0  0  0  0  0  0  0
    0.0000    0.0000    0.0000 O   0  0  0  0  0  0  0  0  0  0  0  0
    0.0000    0.0000    0.0000 C   0  0  0  0  0  0  0  0  0  0  0  0
    0.0000    0.0000    0.0000 C   0  0  0  0  0  0  0  0  0  0  0  0
    0.0000    0.0000    0.0000 C   0  0  0  0  0  0  0  0  0  0  0  0
    0.0000    0.0000    0.0000 C   0  0  0  0  0  0  0  0  0  0  0  0
    0.0000    0.0000    0.0000 C   0  0  0  0  0  0  0  0  0  0  0  0
    0.0000    0.0000    0.0000 C   0  0  0  0  0  0  0  0  0  0  0  0
    0.0000    0.0000    0.0000 C   0  0  0  0  0  0  0  0  0  0  0  0
    0.0000    0.0000    0.0000 S   0  0  0  0  0  0  0  0  0  0  0  0
    0.0000    0.0000    0.0000 C   0  0  0  0  0  0  0  0  0  0  0  0
    0.0000    0.0000    0.0000 S   0  0  0  0  0  0  0  0  0  0  0  0
    0.0000    0.0000    0.0000 S   0  0  0  0  0  0  0  0  0  0  0  0
    0.0000    0.0000    0.0000 O   0  0  0  0  0  0  0  0  0  0  0  0
    0.0000    0.0000    0.0000 O   0  0  0  0  0  0  0  0  0  0  0  0
    0.0000    0.0000    0.0000 N   0  0  0  0  0  0  0  0  0  0  0  0
  1  2  1  0
  2  3  1  0
  3  4  1  0
  4  5  1  0
  5  6  1  0
  6  7  1  0
  7  8  1  0
  8  9  1  0
  9 10  1  0
 10 11  1  0
 11 12  1  0
 12 13  1  0
 13 14  1  0
 14 15  1  0
  8 16  1  0
 16 17  1  0
 17 18  2  0
 18 19  1  0
 19 20  1  0
 20 21  2  0
 21 22  1  0
 22 23  1  0
 23 24  1  0
 21 25  1  0
 25 26  2  0
 25 27  2  0
 25 28  1  0
 24 17  1  0
 23 19  2  0
M  END
>  <pIC50>  (94) 
8.4

>  <ChEMBL_ID>  (94) 
CHEMBL555548

>  <document_journal>  (94) 
J. Med. Chem.

>  <bao_endpoint>  (94) 
BAO_0000190

>  <potential_duplicate>  (94) 
False

>  <uo_units>  (94) 
UO_0000065

>  <canonical_smiles>  (94) 
Cl.COCCOCCN(CCOCCOC)Cc1cc2cc(sc2s1)S(=O)(=O)N

>  <parent_molecule_chembl_id>  (94) 
CHEMBL1195896

>  <assay_type>  (94) 
B

>  <src_id>  (94) 
1

>  <ligand_efficiency>  (94) 
{u'le': u'0.41', u'bei': u'18.57', u'sei': u'5.09', u'lle': u'7.71'}

>  <standard_flag>  (94) 
True

>  <molecule_chembl_id>  (94) 
CHEMBL555548

>  <target_organism>  (94) 
Homo sapiens

>  <standard_units>  (94) 
nM

>  <record_id>  (94) 
88104

>  <document_chembl_id>  (94) 
CHEMBL1125927

>  <bao_format>  (94) 
BAO_0000357

>  <data_validity_description>  (94) 
None

>  <activity_id>  (94) 
99776

>  <standard_type>  (94) 
IC50

>  <target_chembl_id>  (94) 
CHEMBL205

>  <data_validity_comment>  (94) 
None

>  <published_value>  (94) 
3.95E-9

>  <document_year>  (94) 
1991

>  <target_pref_name>  (94) 
Carbonic anhydrase II

>  <assay_chembl_id>  (94) 
CHEMBL656578

>  <standard_relation>  (94) 
=

>  <assay_description>  (94) 
The compound was tested for in vitro inhibitory activity against human Carbonic anhydrase II

>  <published_relation>  (94) 
=

>  <standard_value>  (94) 
3.95

>  <qudt_units>  (94) 
http://www.openphacts.org/units/Nanomolar

>  <target_tax_id>  (94) 
9606

>  <bao_label>  (94) 
single protein format

>  <published_units>  (94) 
M

>  <pchembl_value>  (94) 
8.4

>  <published_type>  (94) 
I50

>  <activity_comment>  (94) 
None

$$$$

     RDKit          

 18 19  0  0  0  0  0  0  0  0999 V2000
    0.0000    0.0000    0.0000 C   0  0  0  0  0  0  0  0  0  0  0  0
    0.0000    0.0000    0.0000 S   0  0  0  0  0  0  0  0  0  0  0  0
    0.0000    0.0000    0.0000 C   0  0  0  0  0  0  0  0  0  0  0  0
    0.0000    0.0000    0.0000 C   0  0  0  0  0  0  0  0  0  0  0  0
    0.0000    0.0000    0.0000 N   0  0  0  0  0  0  0  0  0  0  0  0
    0.0000    0.0000    0.0000 C   0  0  0  0  0  0  0  0  0  0  0  0
    0.0000    0.0000    0.0000 C   0  0  0  0  0  0  0  0  0  0  0  0
    0.0000    0.0000    0.0000 C   0  0  0  0  0  0  0  0  0  0  0  0
    0.0000    0.0000    0.0000 C   0  0  0  0  0  0  0  0  0  0  0  0
    0.0000    0.0000    0.0000 C   0  0  0  0  0  0  0  0  0  0  0  0
    0.0000    0.0000    0.0000 C   0  0  0  0  0  0  0  0  0  0  0  0
    0.0000    0.0000    0.0000 S   0  0  0  0  0  0  0  0  0  0  0  0
    0.0000    0.0000    0.0000 C   0  0  0  0  0  0  0  0  0  0  0  0
    0.0000    0.0000    0.0000 S   0  0  0  0  0  0  0  0  0  0  0  0
    0.0000    0.0000    0.0000 S   0  0  0  0  0  0  0  0  0  0  0  0
    0.0000    0.0000    0.0000 O   0  0  0  0  0  0  0  0  0  0  0  0
    0.0000    0.0000    0.0000 O   0  0  0  0  0  0  0  0  0  0  0  0
    0.0000    0.0000    0.0000 N   0  0  0  0  0  0  0  0  0  0  0  0
  1  2  1  0
  2  3  1  0
  3  4  1  0
  4  5  1  0
  5  6  1  0
  6  7  1  0
  7  8  2  0
  8  9  1  0
  9 10  1  0
 10 11  2  0
 11 12  1  0
 12 13  1  0
 13 14  1  0
 11 15  1  0
 15 16  2  0
 15 17  2  0
 15 18  1  0
 14  7  1  0
 13  9  2  0
M  END
>  <pIC50>  (95) 
8.4

>  <ChEMBL_ID>  (95) 
CHEMBL544970

>  <document_journal>  (95) 
J. Med. Chem.

>  <bao_endpoint>  (95) 
BAO_0000190

>  <potential_duplicate>  (95) 
False

>  <uo_units>  (95) 
UO_0000065

>  <canonical_smiles>  (95) 
Cl.CSCCNCc1cc2cc(sc2s1)S(=O)(=O)N

>  <parent_molecule_chembl_id>  (95) 
CHEMBL1193545

>  <assay_type>  (95) 
B

>  <src_id>  (95) 
1

>  <ligand_efficiency>  (95) 
{u'le': u'0.64', u'bei': u'26.04', u'sei': u'5.17', u'lle': u'7.11'}

>  <standard_flag>  (95) 
True

>  <molecule_chembl_id>  (95) 
CHEMBL544970

>  <target_organism>  (95) 
Homo sapiens

>  <standard_units>  (95) 
nM

>  <record_id>  (95) 
88071

>  <document_chembl_id>  (95) 
CHEMBL1125927

>  <bao_format>  (95) 
BAO_0000357

>  <data_validity_description>  (95) 
None

>  <activity_id>  (95) 
99840

>  <standard_type>  (95) 
IC50

>  <target_chembl_id>  (95) 
CHEMBL205

>  <data_validity_comment>  (95) 
None

>  <published_value>  (95) 
4E-9

>  <document_year>  (95) 
1991

>  <target_pref_name>  (95) 
Carbonic anhydrase II

>  <assay_chembl_id>  (95) 
CHEMBL656579

>  <standard_relation>  (95) 
=

>  <assay_description>  (95) 
In vitro inhibitory activity against human carbonic anhydrase II

>  <published_relation>  (95) 
=

>  <standard_value>  (95) 
4

>  <qudt_units>  (95) 
http://www.openphacts.org/units/Nanomolar

>  <target_tax_id>  (95) 
9606

>  <bao_label>  (95) 
single protein format

>  <published_units>  (95) 
M

>  <pchembl_value>  (95) 
8.4

>  <published_type>  (95) 
I50

>  <activity_comment>  (95) 
None

$$$$

     RDKit          

 24 25  0  0  0  0  0  0  0  0999 V2000
    0.0000    0.0000    0.0000 C   0  0  0  0  0  0  0  0  0  0  0  0
    0.0000    0.0000    0.0000 C   0  0  0  0  0  0  0  0  0  0  0  0
    0.0000    0.0000    0.0000 N   0  0  0  0  0  0  0  0  0  0  0  0
    0.0000    0.0000    0.0000 C   0  0  0  0  0  0  0  0  0  0  0  0
    0.0000    0.0000    0.0000 C   0  0  0  0  0  0  0  0  0  0  0  0
    0.0000    0.0000    0.0000 N   0  0  0  0  0  0  0  0  0  0  0  0
    0.0000    0.0000    0.0000 C   0  0  0  0  0  0  0  0  0  0  0  0
    0.0000    0.0000    0.0000 C   0  0  0  0  0  0  0  0  0  0  0  0
    0.0000    0.0000    0.0000 C   0  0  0  0  0  0  0  0  0  0  0  0
    0.0000    0.0000    0.0000 C   0  0  0  0  0  0  0  0  0  0  0  0
    0.0000    0.0000    0.0000 O   0  0  0  0  0  0  0  0  0  0  0  0
    0.0000    0.0000    0.0000 C   0  0  0  0  0  0  0  0  0  0  0  0
    0.0000    0.0000    0.0000 S   0  0  0  0  0  0  0  0  0  0  0  0
    0.0000    0.0000    0.0000 O   0  0  0  0  0  0  0  0  0  0  0  0
    0.0000    0.0000    0.0000 O   0  0  0  0  0  0  0  0  0  0  0  0
    0.0000    0.0000    0.0000 C   0  0  0  0  0  0  0  0  0  0  0  0
    0.0000    0.0000    0.0000 S   0  0  0  0  0  0  0  0  0  0  0  0
    0.0000    0.0000    0.0000 C   0  0  0  0  0  0  0  0  0  0  0  0
    0.0000    0.0000    0.0000 C   0  0  0  0  0  0  0  0  0  0  0  0
    0.0000    0.0000    0.0000 C   0  0  0  0  0  0  0  0  0  0  0  0
    0.0000    0.0000    0.0000 S   0  0  0  0  0  0  0  0  0  0  0  0
    0.0000    0.0000    0.0000 O   0  0  0  0  0  0  0  0  0  0  0  0
    0.0000    0.0000    0.0000 O   0  0  0  0  0  0  0  0  0  0  0  0
    0.0000    0.0000    0.0000 N   0  0  0  0  0  0  0  0  0  0  0  0
  1  2  1  0
  2  3  1  0
  3  4  1  0
  4  5  1  0
  5  6  1  0
  6  7  1  0
  7  8  1  0
  8  9  1  0
  9 10  1  0
 10 11  1  0
 11 12  1  0
  6 13  1  0
 13 14  2  0
 13 15  2  0
 13 16  1  0
 16 17  1  0
 17 18  1  0
 18 19  2  0
 19 20  1  0
 18 21  1  0
 21 22  2  0
 21 23  2  0
 21 24  1  0
 20  4  1  0
 20 16  2  0
M  END
>  <pIC50>  (96) 
8.5

>  <ChEMBL_ID>  (96) 
CHEMBL121031

>  <document_journal>  (96) 
J. Med. Chem.

>  <bao_endpoint>  (96) 
BAO_0000190

>  <potential_duplicate>  (96) 
False

>  <uo_units>  (96) 
UO_0000065

>  <canonical_smiles>  (96) 
CCN[C@H]1CN(CCCCOC)S(=O)(=O)c2sc(cc12)S(=O)(=O)N

>  <parent_molecule_chembl_id>  (96) 
CHEMBL121031

>  <assay_type>  (96) 
B

>  <src_id>  (96) 
1

>  <ligand_efficiency>  (96) 
{u'le': u'0.48', u'bei': u'21.37', u'sei': u'5.19', u'lle': u'8.68'}

>  <standard_flag>  (96) 
True

>  <molecule_chembl_id>  (96) 
CHEMBL121031

>  <target_organism>  (96) 
Homo sapiens

>  <standard_units>  (96) 
nM

>  <record_id>  (96) 
227756

>  <document_chembl_id>  (96) 
CHEMBL1135542

>  <bao_format>  (96) 
BAO_0000357

>  <data_validity_description>  (96) 
None

>  <activity_id>  (96) 
100636

>  <standard_type>  (96) 
IC50

>  <target_chembl_id>  (96) 
CHEMBL205

>  <data_validity_comment>  (96) 
None

>  <published_value>  (96) 
3.2

>  <document_year>  (96) 
2002

>  <target_pref_name>  (96) 
Carbonic anhydrase II

>  <assay_chembl_id>  (96) 
CHEMBL657920

>  <standard_relation>  (96) 
=

>  <assay_description>  (96) 
Inhibitory activity against carbonic anhydrase II

>  <published_relation>  (96) 
=

>  <standard_value>  (96) 
3.2

>  <qudt_units>  (96) 
http://www.openphacts.org/units/Nanomolar

>  <target_tax_id>  (96) 
9606

>  <bao_label>  (96) 
single protein format

>  <published_units>  (96) 
nM

>  <pchembl_value>  (96) 
8.5

>  <published_type>  (96) 
IC50

>  <activity_comment>  (96) 
None

$$$$

     RDKit          

 18 20  0  0  0  0  0  0  0  0999 V2000
    0.0000    0.0000    0.0000 N   0  0  0  0  0  0  0  0  0  0  0  0
    0.0000    0.0000    0.0000 S   0  0  0  0  0  0  0  0  0  0  0  0
    0.0000    0.0000    0.0000 O   0  0  0  0  0  0  0  0  0  0  0  0
    0.0000    0.0000    0.0000 O   0  0  0  0  0  0  0  0  0  0  0  0
    0.0000    0.0000    0.0000 C   0  0  0  0  0  0  0  0  0  0  0  0
    0.0000    0.0000    0.0000 C   0  0  0  0  0  0  0  0  0  0  0  0
    0.0000    0.0000    0.0000 C   0  0  0  0  0  0  0  0  0  0  0  0
    0.0000    0.0000    0.0000 C   0  0  0  0  0  0  0  0  0  0  0  0
    0.0000    0.0000    0.0000 C   0  0  0  0  0  0  0  0  0  0  0  0
    0.0000    0.0000    0.0000 S   0  0  0  0  0  0  0  0  0  0  0  0
    0.0000    0.0000    0.0000 C   0  0  0  0  0  0  0  0  0  0  0  0
    0.0000    0.0000    0.0000 S   0  0  0  0  0  0  0  0  0  0  0  0
    0.0000    0.0000    0.0000 N   0  0  0  0  0  0  0  0  0  0  0  0
    0.0000    0.0000    0.0000 C   0  0  0  0  0  0  0  0  0  0  0  0
    0.0000    0.0000    0.0000 C   0  0  0  0  0  0  0  0  0  0  0  0
    0.0000    0.0000    0.0000 O   0  0  0  0  0  0  0  0  0  0  0  0
    0.0000    0.0000    0.0000 C   0  0  0  0  0  0  0  0  0  0  0  0
    0.0000    0.0000    0.0000 C   0  0  0  0  0  0  0  0  0  0  0  0
  1  2  1  0
  2  3  2  0
  2  4  2  0
  2  5  1  0
  5  6  2  0
  6  7  1  0
  7  8  1  0
  8  9  2  0
  9 10  1  0
 10 11  1  0
 11 12  1  0
  9 13  1  0
 13 14  1  0
 14 15  1  0
 15 16  1  0
 16 17  1  0
 17 18  1  0
 12  5  1  0
 11  7  2  0
 18 13  1  0
M  END
>  <pIC50>  (97) 
8.52

>  <ChEMBL_ID>  (97) 
CHEMBL333520

>  <document_journal>  (97) 
J. Med. Chem.

>  <bao_endpoint>  (97) 
BAO_0000190

>  <potential_duplicate>  (97) 
False

>  <uo_units>  (97) 
UO_0000065

>  <canonical_smiles>  (97) 
NS(=O)(=O)c1cc2cc(sc2s1)N3CCOCC3

>  <parent_molecule_chembl_id>  (97) 
CHEMBL333520

>  <assay_type>  (97) 
B

>  <src_id>  (97) 
1

>  <ligand_efficiency>  (97) 
{u'le': u'0.65', u'bei': u'28', u'sei': u'6.2', u'lle': u'7.48'}

>  <standard_flag>  (97) 
True

>  <molecule_chembl_id>  (97) 
CHEMBL333520

>  <target_organism>  (97) 
Homo sapiens

>  <standard_units>  (97) 
nM

>  <record_id>  (97) 
227754

>  <document_chembl_id>  (97) 
CHEMBL1135542

>  <bao_format>  (97) 
BAO_0000357

>  <data_validity_description>  (97) 
None

>  <activity_id>  (97) 
100640

>  <standard_type>  (97) 
IC50

>  <target_chembl_id>  (97) 
CHEMBL205

>  <data_validity_comment>  (97) 
None

>  <published_value>  (97) 
3

>  <document_year>  (97) 
2002

>  <target_pref_name>  (97) 
Carbonic anhydrase II

>  <assay_chembl_id>  (97) 
CHEMBL657920

>  <standard_relation>  (97) 
=

>  <assay_description>  (97) 
Inhibitory activity against carbonic anhydrase II

>  <published_relation>  (97) 
=

>  <standard_value>  (97) 
3

>  <qudt_units>  (97) 
http://www.openphacts.org/units/Nanomolar

>  <target_tax_id>  (97) 
9606

>  <bao_label>  (97) 
single protein format

>  <published_units>  (97) 
nM

>  <pchembl_value>  (97) 
8.52

>  <published_type>  (97) 
IC50

>  <activity_comment>  (97) 
None

$$$$

     RDKit          

 20 21  0  0  0  0  0  0  0  0999 V2000
    0.0000    0.0000    0.0000 C   0  0  0  0  0  0  0  0  0  0  0  0
    0.0000    0.0000    0.0000 C   0  0  0  0  0  0  0  0  0  0  0  0
    0.0000    0.0000    0.0000 C   0  0  0  0  0  0  0  0  0  0  0  0
    0.0000    0.0000    0.0000 C   0  0  0  0  0  0  0  0  0  0  0  0
    0.0000    0.0000    0.0000 C   0  0  0  0  0  0  0  0  0  0  0  0
    0.0000    0.0000    0.0000 O   0  0  0  0  0  0  0  0  0  0  0  0
    0.0000    0.0000    0.0000 O   0  0  0  0  0  0  0  0  0  0  0  0
    0.0000    0.0000    0.0000 C   0  0  0  0  0  0  0  0  0  0  0  0
    0.0000    0.0000    0.0000 C   0  0  0  0  0  0  0  0  0  0  0  0
    0.0000    0.0000    0.0000 C   0  0  0  0  0  0  0  0  0  0  0  0
    0.0000    0.0000    0.0000 C   0  0  0  0  0  0  0  0  0  0  0  0
    0.0000    0.0000    0.0000 C   0  0  0  0  0  0  0  0  0  0  0  0
    0.0000    0.0000    0.0000 C   0  0  0  0  0  0  0  0  0  0  0  0
    0.0000    0.0000    0.0000 O   0  0  0  0  0  0  0  0  0  0  0  0
    0.0000    0.0000    0.0000 C   0  0  0  0  0  0  0  0  0  0  0  0
    0.0000    0.0000    0.0000 C   0  0  0  0  0  0  0  0  0  0  0  0
    0.0000    0.0000    0.0000 S   0  0  0  0  0  0  0  0  0  0  0  0
    0.0000    0.0000    0.0000 O   0  0  0  0  0  0  0  0  0  0  0  0
    0.0000    0.0000    0.0000 O   0  0  0  0  0  0  0  0  0  0  0  0
    0.0000    0.0000    0.0000 N   0  0  0  0  0  0  0  0  0  0  0  0
  1  2  1  0
  2  3  1  0
  2  4  1  0
  2  5  1  0
  5  6  2  0
  5  7  1  0
  7  8  1  0
  8  9  2  0
  9 10  1  0
 10 11  2  0
 11 12  1  0
 12 13  2  0
 13 14  1  0
 14 15  1  0
 15 16  2  0
 13 17  1  0
 17 18  2  0
 17 19  2  0
 17 20  1  0
 16  8  1  0
 15 11  1  0
M  END
>  <pIC50>  (98) 
8.34

>  <ChEMBL_ID>  (98) 
CHEMBL121086

>  <document_journal>  (98) 
J. Med. Chem.

>  <bao_endpoint>  (98) 
BAO_0000190

>  <potential_duplicate>  (98) 
False

>  <uo_units>  (98) 
UO_0000065

>  <canonical_smiles>  (98) 
CC(C)(C)C(=O)Oc1ccc2cc(oc2c1)S(=O)(=O)N

>  <parent_molecule_chembl_id>  (98) 
CHEMBL121086

>  <assay_type>  (98) 
B

>  <src_id>  (98) 
1

>  <ligand_efficiency>  (98) 
{u'le': u'0.58', u'bei': u'28.66', u'sei': u'7.89', u'lle': u'6.24'}

>  <standard_flag>  (98) 
True

>  <molecule_chembl_id>  (98) 
CHEMBL121086

>  <target_organism>  (98) 
Homo sapiens

>  <standard_units>  (98) 
nM

>  <record_id>  (98) 
227763

>  <document_chembl_id>  (98) 
CHEMBL1135542

>  <bao_format>  (98) 
BAO_0000357

>  <data_validity_description>  (98) 
None

>  <activity_id>  (98) 
100642

>  <standard_type>  (98) 
IC50

>  <target_chembl_id>  (98) 
CHEMBL205

>  <data_validity_comment>  (98) 
None

>  <published_value>  (98) 
3

>  <document_year>  (98) 
2002

>  <target_pref_name>  (98) 
Carbonic anhydrase II

>  <assay_chembl_id>  (98) 
CHEMBL657920

>  <standard_relation>  (98) 
=

>  <assay_description>  (98) 
Inhibitory activity against carbonic anhydrase II

>  <published_relation>  (98) 
=

>  <standard_value>  (98) 
3

>  <qudt_units>  (98) 
http://www.openphacts.org/units/Nanomolar

>  <target_tax_id>  (98) 
9606

>  <bao_label>  (98) 
single protein format

>  <published_units>  (98) 
nM

>  <pchembl_value>  (98) 
8.52

>  <published_type>  (98) 
IC50

>  <activity_comment>  (98) 
None

$$$$

     RDKit          

 14 15  0  0  0  0  0  0  0  0999 V2000
    0.0000    0.0000    0.0000 N   0  0  0  0  0  0  0  0  0  0  0  0
    0.0000    0.0000    0.0000 C   0  0  0  0  0  0  0  0  0  0  0  0
    0.0000    0.0000    0.0000 C   0  0  0  0  0  0  0  0  0  0  0  0
    0.0000    0.0000    0.0000 C   0  0  0  0  0  0  0  0  0  0  0  0
    0.0000    0.0000    0.0000 C   0  0  0  0  0  0  0  0  0  0  0  0
    0.0000    0.0000    0.0000 C   0  0  0  0  0  0  0  0  0  0  0  0
    0.0000    0.0000    0.0000 C   0  0  0  0  0  0  0  0  0  0  0  0
    0.0000    0.0000    0.0000 S   0  0  0  0  0  0  0  0  0  0  0  0
    0.0000    0.0000    0.0000 C   0  0  0  0  0  0  0  0  0  0  0  0
    0.0000    0.0000    0.0000 S   0  0  0  0  0  0  0  0  0  0  0  0
    0.0000    0.0000    0.0000 S   0  0  0  0  0  0  0  0  0  0  0  0
    0.0000    0.0000    0.0000 O   0  0  0  0  0  0  0  0  0  0  0  0
    0.0000    0.0000    0.0000 O   0  0  0  0  0  0  0  0  0  0  0  0
    0.0000    0.0000    0.0000 N   0  0  0  0  0  0  0  0  0  0  0  0
  1  2  1  0
  2  3  1  0
  3  4  2  0
  4  5  1  0
  5  6  1  0
  6  7  2  0
  7  8  1  0
  8  9  1  0
  9 10  1  0
  7 11  1  0
 11 12  2  0
 11 13  2  0
 11 14  1  0
 10  3  1  0
  9  5  2  0
M  END
>  <pIC50>  (99) 
7.85

>  <ChEMBL_ID>  (99) 
CHEMBL50929

>  <document_journal>  (99) 
J. Med. Chem.

>  <bao_endpoint>  (99) 
BAO_0000190

>  <potential_duplicate>  (99) 
False

>  <uo_units>  (99) 
UO_0000065

>  <canonical_smiles>  (99) 
NCc1cc2cc(sc2s1)S(=O)(=O)N

>  <parent_molecule_chembl_id>  (99) 
CHEMBL50929

>  <assay_type>  (99) 
B

>  <src_id>  (99) 
1

>  <ligand_efficiency>  (99) 
{u'le': u'0.77', u'bei': u'31.62', u'sei': u'5.2', u'lle': u'7.6'}

>  <standard_flag>  (99) 
True

>  <molecule_chembl_id>  (99) 
CHEMBL50929

>  <target_organism>  (99) 
Homo sapiens

>  <standard_units>  (99) 
nM

>  <record_id>  (99) 
88072

>  <document_chembl_id>  (99) 
CHEMBL1125927

>  <bao_format>  (99) 
BAO_0000357

>  <data_validity_description>  (99) 
None

>  <activity_id>  (99) 
101875

>  <standard_type>  (99) 
IC50

>  <target_chembl_id>  (99) 
CHEMBL205

>  <data_validity_comment>  (99) 
None

>  <published_value>  (99) 
1.4E-8

>  <document_year>  (99) 
1991

>  <target_pref_name>  (99) 
Carbonic anhydrase II

>  <assay_chembl_id>  (99) 
CHEMBL656579

>  <standard_relation>  (99) 
=

>  <assay_description>  (99) 
In vitro inhibitory activity against human carbonic anhydrase II

>  <published_relation>  (99) 
=

>  <standard_value>  (99) 
14

>  <qudt_units>  (99) 
http://www.openphacts.org/units/Nanomolar

>  <target_tax_id>  (99) 
9606

>  <bao_label>  (99) 
single protein format

>  <published_units>  (99) 
M

>  <pchembl_value>  (99) 
7.85

>  <published_type>  (99) 
I50

>  <activity_comment>  (99) 
None

$$$$

     RDKit          

 17 18  0  0  0  0  0  0  0  0999 V2000
    0.0000    0.0000    0.0000 N   0  0  0  0  0  0  0  0  0  0  0  0
    0.0000    0.0000    0.0000 S   0  0  0  0  0  0  0  0  0  0  0  0
    0.0000    0.0000    0.0000 O   0  0  0  0  0  0  0  0  0  0  0  0
    0.0000    0.0000    0.0000 O   0  0  0  0  0  0  0  0  0  0  0  0
    0.0000    0.0000    0.0000 C   0  0  0  0  0  0  0  0  0  0  0  0
    0.0000    0.0000    0.0000 C   0  0  0  0  0  0  0  0  0  0  0  0
    0.0000    0.0000    0.0000 C   0  0  0  0  0  0  0  0  0  0  0  0
    0.0000    0.0000    0.0000 C   0  0  0  0  0  0  0  0  0  0  0  0
    0.0000    0.0000    0.0000 C   0  0  0  0  0  0  0  0  0  0  0  0
    0.0000    0.0000    0.0000 C   0  0  0  0  0  0  0  0  0  0  0  0
    0.0000    0.0000    0.0000 N   0  0  0  0  0  0  0  0  0  0  0  0
    0.0000    0.0000    0.0000 C   0  0  0  0  0  0  0  0  0  0  0  0
    0.0000    0.0000    0.0000 C   0  0  0  0  0  0  0  0  0  0  0  0
    0.0000    0.0000    0.0000 F   0  0  0  0  0  0  0  0  0  0  0  0
    0.0000    0.0000    0.0000 S   0  0  0  0  0  0  0  0  0  0  0  0
    0.0000    0.0000    0.0000 C   0  0  0  0  0  0  0  0  0  0  0  0
    0.0000    0.0000    0.0000 S   0  0  0  0  0  0  0  0  0  0  0  0
  1  2  1  0
  2  3  2  0
  2  4  2  0
  2  5  1  0
  5  6  2  0
  6  7  1  0
  7  8  1  0
  8  9  2  0
  9 10  1  0
 10 11  1  0
 11 12  1  0
 12 13  1  0
 13 14  1  0
  9 15  1  0
 15 16  1  0
 16 17  1  0
 17  5  1  0
 16  7  2  0
M  END
>  <pIC50>  (100) 
8.57

>  <ChEMBL_ID>  (100) 
CHEMBL544032

>  <document_journal>  (100) 
J. Med. Chem.

>  <bao_endpoint>  (100) 
BAO_0000190

>  <potential_duplicate>  (100) 
False

>  <uo_units>  (100) 
UO_0000065

>  <canonical_smiles>  (100) 
Cl.NS(=O)(=O)c1cc2cc(CNCCF)sc2s1

>  <parent_molecule_chembl_id>  (100) 
CHEMBL1192744

>  <assay_type>  (100) 
B

>  <src_id>  (100) 
1

>  <ligand_efficiency>  (100) 
{u'le': u'0.69', u'bei': u'29.11', u'sei': u'6.25', u'lle': u'7.49'}

>  <standard_flag>  (100) 
True

>  <molecule_chembl_id>  (100) 
CHEMBL544032

>  <target_organism>  (100) 
Homo sapiens

>  <standard_units>  (100) 
nM

>  <record_id>  (100) 
88070

>  <document_chembl_id>  (100) 
CHEMBL1125927

>  <bao_format>  (100) 
BAO_0000357

>  <data_validity_description>  (100) 
None

>  <activity_id>  (100) 
101879

>  <standard_type>  (100) 
IC50

>  <target_chembl_id>  (100) 
CHEMBL205

>  <data_validity_comment>  (100) 
None

>  <published_value>  (100) 
2.7E-9

>  <document_year>  (100) 
1991

>  <target_pref_name>  (100) 
Carbonic anhydrase II

>  <assay_chembl_id>  (100) 
CHEMBL656579

>  <standard_relation>  (100) 
=

>  <assay_description>  (100) 
In vitro inhibitory activity against human carbonic anhydrase II

>  <published_relation>  (100) 
=

>  <standard_value>  (100) 
2.7

>  <qudt_units>  (100) 
http://www.openphacts.org/units/Nanomolar

>  <target_tax_id>  (100) 
9606

>  <bao_label>  (100) 
single protein format

>  <published_units>  (100) 
M

>  <pchembl_value>  (100) 
8.57

>  <published_type>  (100) 
I50

>  <activity_comment>  (100) 
None

$$$$

     RDKit          

 18 20  0  0  0  0  0  0  0  0999 V2000
    0.0000    0.0000    0.0000 N   0  0  0  0  0  0  0  0  0  0  0  0
    0.0000    0.0000    0.0000 S   0  0  0  0  0  0  0  0  0  0  0  0
    0.0000    0.0000    0.0000 O   0  0  0  0  0  0  0  0  0  0  0  0
    0.0000    0.0000    0.0000 O   0  0  0  0  0  0  0  0  0  0  0  0
    0.0000    0.0000    0.0000 C   0  0  0  0  0  0  0  0  0  0  0  0
    0.0000    0.0000    0.0000 C   0  0  0  0  0  0  0  0  0  0  0  0
    0.0000    0.0000    0.0000 C   0  0  0  0  0  0  0  0  0  0  0  0
    0.0000    0.0000    0.0000 C   0  0  0  0  0  0  0  0  0  0  0  0
    0.0000    0.0000    0.0000 C   0  0  0  0  0  0  0  0  0  0  0  0
    0.0000    0.0000    0.0000 S   0  0  0  0  0  0  0  0  0  0  0  0
    0.0000    0.0000    0.0000 C   0  0  0  0  0  0  0  0  0  0  0  0
    0.0000    0.0000    0.0000 S   0  0  0  0  0  0  0  0  0  0  0  0
    0.0000    0.0000    0.0000 N   0  0  0  0  0  0  0  0  0  0  0  0
    0.0000    0.0000    0.0000 C   0  0  0  0  0  0  0  0  0  0  0  0
    0.0000    0.0000    0.0000 C   0  0  0  0  0  0  0  0  0  0  0  0
    0.0000    0.0000    0.0000 S   0  0  0  0  0  0  0  0  0  0  0  0
    0.0000    0.0000    0.0000 C   0  0  0  0  0  0  0  0  0  0  0  0
    0.0000    0.0000    0.0000 C   0  0  0  0  0  0  0  0  0  0  0  0
  1  2  1  0
  2  3  2  0
  2  4  2  0
  2  5  1  0
  5  6  2  0
  6  7  1  0
  7  8  1  0
  8  9  2  0
  9 10  1  0
 10 11  1  0
 11 12  1  0
  9 13  1  0
 13 14  1  0
 14 15  1  0
 15 16  1  0
 16 17  1  0
 17 18  1  0
 12  5  1  0
 11  7  2  0
 18 13  1  0
M  END
>  <pIC50>  (101) 
8.59

>  <ChEMBL_ID>  (101) 
CHEMBL333281

>  <document_journal>  (101) 
J. Med. Chem.

>  <bao_endpoint>  (101) 
BAO_0000190

>  <potential_duplicate>  (101) 
False

>  <uo_units>  (101) 
UO_0000065

>  <canonical_smiles>  (101) 
NS(=O)(=O)c1cc2cc(sc2s1)N3CCSCC3

>  <parent_molecule_chembl_id>  (101) 
CHEMBL333281

>  <assay_type>  (101) 
B

>  <src_id>  (101) 
1

>  <ligand_efficiency>  (101) 
{u'le': u'0.65', u'bei': u'26.79', u'sei': u'5.59', u'lle': u'6.81'}

>  <standard_flag>  (101) 
True

>  <molecule_chembl_id>  (101) 
CHEMBL333281

>  <target_organism>  (101) 
Homo sapiens

>  <standard_units>  (101) 
nM

>  <record_id>  (101) 
227753

>  <document_chembl_id>  (101) 
CHEMBL1135542

>  <bao_format>  (101) 
BAO_0000357

>  <data_validity_description>  (101) 
None

>  <activity_id>  (101) 
102778

>  <standard_type>  (101) 
IC50

>  <target_chembl_id>  (101) 
CHEMBL205

>  <data_validity_comment>  (101) 
None

>  <published_value>  (101) 
2.6

>  <document_year>  (101) 
2002

>  <target_pref_name>  (101) 
Carbonic anhydrase II

>  <assay_chembl_id>  (101) 
CHEMBL657920

>  <standard_relation>  (101) 
=

>  <assay_description>  (101) 
Inhibitory activity against carbonic anhydrase II

>  <published_relation>  (101) 
=

>  <standard_value>  (101) 
2.6

>  <qudt_units>  (101) 
http://www.openphacts.org/units/Nanomolar

>  <target_tax_id>  (101) 
9606

>  <bao_label>  (101) 
single protein format

>  <published_units>  (101) 
nM

>  <pchembl_value>  (101) 
8.59

>  <published_type>  (101) 
IC50

>  <activity_comment>  (101) 
None

$$$$

     RDKit          

 20 21  0  0  0  0  0  0  0  0999 V2000
    0.0000    0.0000    0.0000 C   0  0  0  0  0  0  0  0  0  0  0  0
    0.0000    0.0000    0.0000 S   0  0  0  0  0  0  0  0  0  0  0  0
    0.0000    0.0000    0.0000 O   0  0  0  0  0  0  0  0  0  0  0  0
    0.0000    0.0000    0.0000 O   0  0  0  0  0  0  0  0  0  0  0  0
    0.0000    0.0000    0.0000 C   0  0  0  0  0  0  0  0  0  0  0  0
    0.0000    0.0000    0.0000 C   0  0  0  0  0  0  0  0  0  0  0  0
    0.0000    0.0000    0.0000 N   0  0  0  0  0  0  0  0  0  0  0  0
    0.0000    0.0000    0.0000 C   0  0  0  0  0  0  0  0  0  0  0  0
    0.0000    0.0000    0.0000 C   0  0  0  0  0  0  0  0  0  0  0  0
    0.0000    0.0000    0.0000 C   0  0  0  0  0  0  0  0  0  0  0  0
    0.0000    0.0000    0.0000 C   0  0  0  0  0  0  0  0  0  0  0  0
    0.0000    0.0000    0.0000 C   0  0  0  0  0  0  0  0  0  0  0  0
    0.0000    0.0000    0.0000 C   0  0  0  0  0  0  0  0  0  0  0  0
    0.0000    0.0000    0.0000 S   0  0  0  0  0  0  0  0  0  0  0  0
    0.0000    0.0000    0.0000 C   0  0  0  0  0  0  0  0  0  0  0  0
    0.0000    0.0000    0.0000 S   0  0  0  0  0  0  0  0  0  0  0  0
    0.0000    0.0000    0.0000 S   0  0  0  0  0  0  0  0  0  0  0  0
    0.0000    0.0000    0.0000 O   0  0  0  0  0  0  0  0  0  0  0  0
    0.0000    0.0000    0.0000 O   0  0  0  0  0  0  0  0  0  0  0  0
    0.0000    0.0000    0.0000 N   0  0  0  0  0  0  0  0  0  0  0  0
  1  2  1  0
  2  3  2  0
  2  4  2  0
  2  5  1  0
  5  6  1  0
  6  7  1  0
  7  8  1  0
  8  9  1  0
  9 10  2  0
 10 11  1  0
 11 12  1  0
 12 13  2  0
 13 14  1  0
 14 15  1  0
 15 16  1  0
 13 17  1  0
 17 18  2  0
 17 19  2  0
 17 20  1  0
 16  9  1  0
 15 11  2  0
M  END
>  <pIC50>  (102) 
8.35

>  <ChEMBL_ID>  (102) 
CHEMBL539258

>  <document_journal>  (102) 
J. Med. Chem.

>  <bao_endpoint>  (102) 
BAO_0000190

>  <potential_duplicate>  (102) 
False

>  <uo_units>  (102) 
UO_0000065

>  <canonical_smiles>  (102) 
Cl.CS(=O)(=O)CCNCc1cc2cc(sc2s1)S(=O)(=O)N

>  <parent_molecule_chembl_id>  (102) 
CHEMBL1189668

>  <assay_type>  (102) 
B

>  <src_id>  (102) 
1

>  <ligand_efficiency>  (102) 
{u'le': u'0.57', u'bei': u'23.55', u'sei': u'4.65', u'lle': u'8.07'}

>  <standard_flag>  (102) 
True

>  <molecule_chembl_id>  (102) 
CHEMBL539258

>  <target_organism>  (102) 
Homo sapiens

>  <standard_units>  (102) 
nM

>  <record_id>  (102) 
88102

>  <document_chembl_id>  (102) 
CHEMBL1125927

>  <bao_format>  (102) 
BAO_0000357

>  <data_validity_description>  (102) 
None

>  <activity_id>  (102) 
103740

>  <standard_type>  (102) 
IC50

>  <target_chembl_id>  (102) 
CHEMBL205

>  <data_validity_comment>  (102) 
None

>  <published_value>  (102) 
4.5E-9

>  <document_year>  (102) 
1991

>  <target_pref_name>  (102) 
Carbonic anhydrase II

>  <assay_chembl_id>  (102) 
CHEMBL656578

>  <standard_relation>  (102) 
=

>  <assay_description>  (102) 
The compound was tested for in vitro inhibitory activity against human Carbonic anhydrase II

>  <published_relation>  (102) 
=

>  <standard_value>  (102) 
4.5

>  <qudt_units>  (102) 
http://www.openphacts.org/units/Nanomolar

>  <target_tax_id>  (102) 
9606

>  <bao_label>  (102) 
single protein format

>  <published_units>  (102) 
M

>  <pchembl_value>  (102) 
8.35

>  <published_type>  (102) 
I50

>  <activity_comment>  (102) 
None

$$$$

     RDKit          

 18 17  0  0  0  0  0  0  0  0999 V2000
    0.0000    0.0000    0.0000 C   0  0  0  0  0  0  0  0  0  0  0  0
    0.0000    0.0000    0.0000 C   0  0  0  0  0  0  0  0  0  0  0  0
    0.0000    0.0000    0.0000 C   0  0  0  0  0  0  0  0  0  0  0  0
    0.0000    0.0000    0.0000 C   0  0  0  0  0  0  0  0  0  0  0  0
    0.0000    0.0000    0.0000 C   0  0  0  0  0  0  0  0  0  0  0  0
    0.0000    0.0000    0.0000 C   0  0  0  0  0  0  0  0  0  0  0  0
    0.0000    0.0000    0.0000 C   0  0  0  0  0  0  0  0  0  0  0  0
    0.0000    0.0000    0.0000 C   0  0  0  0  0  0  0  0  0  0  0  0
    0.0000    0.0000    0.0000 C   0  0  0  0  0  0  0  0  0  0  0  0
    0.0000    0.0000    0.0000 S   0  0  0  0  0  0  0  0  0  0  0  0
    0.0000    0.0000    0.0000 O   0  0  0  0  0  0  0  0  0  0  0  0
    0.0000    0.0000    0.0000 O   0  0  0  0  0  0  0  0  0  0  0  0
    0.0000    0.0000    0.0000 C   0  0  0  0  0  0  0  0  0  0  0  0
    0.0000    0.0000    0.0000 F   0  0  0  0  0  0  0  0  0  0  0  0
    0.0000    0.0000    0.0000 S   0  0  0  0  0  0  0  0  0  0  0  0
    0.0000    0.0000    0.0000 O   0  0  0  0  0  0  0  0  0  0  0  0
    0.0000    0.0000    0.0000 O   0  0  0  0  0  0  0  0  0  0  0  0
    0.0000    0.0000    0.0000 N   0  0  0  0  0  0  0  0  0  0  0  0
  1  2  1  0
  2  3  1  0
  3  4  1  0
  4  5  1  0
  5  6  1  0
  6  7  1  0
  7  8  1  0
  8  9  1  0
  9 10  1  0
 10 11  2  0
 10 12  2  0
 10 13  1  0
 13 14  1  0
 13 15  1  0
 15 16  2  0
 15 17  2  0
 15 18  1  0
M  END
>  <pIC50>  (103) 
8.52

>  <ChEMBL_ID>  (103) 
CHEMBL120422

>  <document_journal>  (103) 
J. Med. Chem.

>  <bao_endpoint>  (103) 
BAO_0000190

>  <potential_duplicate>  (103) 
False

>  <uo_units>  (103) 
UO_0000065

>  <canonical_smiles>  (103) 
CCCCCCCCCS(=O)(=O)C(F)S(=O)(=O)N

>  <parent_molecule_chembl_id>  (103) 
CHEMBL120422

>  <assay_type>  (103) 
B

>  <src_id>  (103) 
1

>  <ligand_efficiency>  (103) 
{u'le': u'0.65', u'bei': u'28.09', u'sei': u'7.67', u'lle': u'5.56'}

>  <standard_flag>  (103) 
True

>  <molecule_chembl_id>  (103) 
CHEMBL120422

>  <target_organism>  (103) 
Homo sapiens

>  <standard_units>  (103) 
nM

>  <record_id>  (103) 
227787

>  <document_chembl_id>  (103) 
CHEMBL1135542

>  <bao_format>  (103) 
BAO_0000357

>  <data_validity_description>  (103) 
None

>  <activity_id>  (103) 
104737

>  <standard_type>  (103) 
IC50

>  <target_chembl_id>  (103) 
CHEMBL205

>  <data_validity_comment>  (103) 
None

>  <published_value>  (103) 
3

>  <document_year>  (103) 
2002

>  <target_pref_name>  (103) 
Carbonic anhydrase II

>  <assay_chembl_id>  (103) 
CHEMBL657920

>  <standard_relation>  (103) 
=

>  <assay_description>  (103) 
Inhibitory activity against carbonic anhydrase II

>  <published_relation>  (103) 
=

>  <standard_value>  (103) 
3

>  <qudt_units>  (103) 
http://www.openphacts.org/units/Nanomolar

>  <target_tax_id>  (103) 
9606

>  <bao_label>  (103) 
single protein format

>  <published_units>  (103) 
nM

>  <pchembl_value>  (103) 
8.52

>  <published_type>  (103) 
IC50

>  <activity_comment>  (103) 
None

$$$$

     RDKit          

 19 20  0  0  0  0  0  0  0  0999 V2000
    0.0000    0.0000    0.0000 N   0  0  0  0  0  0  0  0  0  0  0  0
    0.0000    0.0000    0.0000 S   0  0  0  0  0  0  0  0  0  0  0  0
    0.0000    0.0000    0.0000 O   0  0  0  0  0  0  0  0  0  0  0  0
    0.0000    0.0000    0.0000 O   0  0  0  0  0  0  0  0  0  0  0  0
    0.0000    0.0000    0.0000 C   0  0  0  0  0  0  0  0  0  0  0  0
    0.0000    0.0000    0.0000 C   0  0  0  0  0  0  0  0  0  0  0  0
    0.0000    0.0000    0.0000 C   0  0  0  0  0  0  0  0  0  0  0  0
    0.0000    0.0000    0.0000 C   0  0  0  0  0  0  0  0  0  0  0  0
    0.0000    0.0000    0.0000 C   0  0  0  0  0  0  0  0  0  0  0  0
    0.0000    0.0000    0.0000 C   0  0  0  0  0  0  0  0  0  0  0  0
    0.0000    0.0000    0.0000 N   0  0  0  0  0  0  0  0  0  0  0  0
    0.0000    0.0000    0.0000 C   0  0  0  0  0  0  0  0  0  0  0  0
    0.0000    0.0000    0.0000 C   0  0  0  0  0  0  0  0  0  0  0  0
    0.0000    0.0000    0.0000 F   0  0  0  0  0  0  0  0  0  0  0  0
    0.0000    0.0000    0.0000 F   0  0  0  0  0  0  0  0  0  0  0  0
    0.0000    0.0000    0.0000 F   0  0  0  0  0  0  0  0  0  0  0  0
    0.0000    0.0000    0.0000 S   0  0  0  0  0  0  0  0  0  0  0  0
    0.0000    0.0000    0.0000 C   0  0  0  0  0  0  0  0  0  0  0  0
    0.0000    0.0000    0.0000 S   0  0  0  0  0  0  0  0  0  0  0  0
  1  2  1  0
  2  3  2  0
  2  4  2  0
  2  5  1  0
  5  6  2  0
  6  7  1  0
  7  8  1  0
  8  9  2  0
  9 10  1  0
 10 11  1  0
 11 12  1  0
 12 13  1  0
 13 14  1  0
 13 15  1  0
 13 16  1  0
  9 17  1  0
 17 18  1  0
 18 19  1  0
 19  5  1  0
 18  7  2  0
M  END
>  <pIC50>  (104) 
8.66

>  <ChEMBL_ID>  (104) 
CHEMBL553720

>  <document_journal>  (104) 
J. Med. Chem.

>  <bao_endpoint>  (104) 
BAO_0000190

>  <potential_duplicate>  (104) 
False

>  <uo_units>  (104) 
UO_0000065

>  <canonical_smiles>  (104) 
Cl.NS(=O)(=O)c1cc2cc(CNCC(F)(F)F)sc2s1

>  <parent_molecule_chembl_id>  (104) 
CHEMBL1195006

>  <assay_type>  (104) 
B

>  <src_id>  (104) 
1

>  <ligand_efficiency>  (104) 
{u'le': u'0.62', u'bei': u'26.21', u'sei': u'6.32', u'lle': u'6.98'}

>  <standard_flag>  (104) 
True

>  <molecule_chembl_id>  (104) 
CHEMBL553720

>  <target_organism>  (104) 
Homo sapiens

>  <standard_units>  (104) 
nM

>  <record_id>  (104) 
88073

>  <document_chembl_id>  (104) 
CHEMBL1125927

>  <bao_format>  (104) 
BAO_0000357

>  <data_validity_description>  (104) 
None

>  <activity_id>  (104) 
104856

>  <standard_type>  (104) 
IC50

>  <target_chembl_id>  (104) 
CHEMBL205

>  <data_validity_comment>  (104) 
None

>  <published_value>  (104) 
2.2E-9

>  <document_year>  (104) 
1991

>  <target_pref_name>  (104) 
Carbonic anhydrase II

>  <assay_chembl_id>  (104) 
CHEMBL656579

>  <standard_relation>  (104) 
=

>  <assay_description>  (104) 
In vitro inhibitory activity against human carbonic anhydrase II

>  <published_relation>  (104) 
=

>  <standard_value>  (104) 
2.2

>  <qudt_units>  (104) 
http://www.openphacts.org/units/Nanomolar

>  <target_tax_id>  (104) 
9606

>  <bao_label>  (104) 
single protein format

>  <published_units>  (104) 
M

>  <pchembl_value>  (104) 
8.66

>  <published_type>  (104) 
I50

>  <activity_comment>  (104) 
None

$$$$

     RDKit          

 13 14  0  0  0  0  0  0  0  0999 V2000
    0.0000    0.0000    0.0000 N   0  0  0  0  0  0  0  0  0  0  0  0
    0.0000    0.0000    0.0000 S   0  0  0  0  0  0  0  0  0  0  0  0
    0.0000    0.0000    0.0000 O   0  0  0  0  0  0  0  0  0  0  0  0
    0.0000    0.0000    0.0000 O   0  0  0  0  0  0  0  0  0  0  0  0
    0.0000    0.0000    0.0000 C   0  0  0  0  0  0  0  0  0  0  0  0
    0.0000    0.0000    0.0000 C   0  0  0  0  0  0  0  0  0  0  0  0
    0.0000    0.0000    0.0000 C   0  0  0  0  0  0  0  0  0  0  0  0
    0.0000    0.0000    0.0000 C   0  0  0  0  0  0  0  0  0  0  0  0
    0.0000    0.0000    0.0000 C   0  0  0  0  0  0  0  0  0  0  0  0
    0.0000    0.0000    0.0000 C   0  0  0  0  0  0  0  0  0  0  0  0
    0.0000    0.0000    0.0000 C   0  0  0  0  0  0  0  0  0  0  0  0
    0.0000    0.0000    0.0000 C   0  0  0  0  0  0  0  0  0  0  0  0
    0.0000    0.0000    0.0000 N   0  0  0  0  0  0  0  0  0  0  0  0
  1  2  1  0
  2  3  2  0
  2  4  2  0
  2  5  1  0
  5  6  2  0
  6  7  1  0
  7  8  2  0
  8  9  1  0
  9 10  2  0
 10 11  1  0
 11 12  2  0
 12 13  1  0
 13  5  1  0
 12  7  1  0
M  END
>  <pIC50>  (105) 
7.35

>  <ChEMBL_ID>  (105) 
CHEMBL162064

>  <document_journal>  (105) 
J. Med. Chem.

>  <bao_endpoint>  (105) 
BAO_0000190

>  <potential_duplicate>  (105) 
False

>  <uo_units>  (105) 
UO_0000065

>  <canonical_smiles>  (105) 
NS(=O)(=O)c1cc2ccccc2[nH]1

>  <parent_molecule_chembl_id>  (105) 
CHEMBL162064

>  <assay_type>  (105) 
B

>  <src_id>  (105) 
1

>  <ligand_efficiency>  (105) 
{u'le': u'0.77', u'bei': u'37.44', u'sei': u'8.71', u'lle': u'6.4'}

>  <standard_flag>  (105) 
True

>  <molecule_chembl_id>  (105) 
CHEMBL162064

>  <target_organism>  (105) 
Homo sapiens

>  <standard_units>  (105) 
nM

>  <record_id>  (105) 
322566

>  <document_chembl_id>  (105) 
CHEMBL1124833

>  <bao_format>  (105) 
BAO_0000357

>  <data_validity_description>  (105) 
None

>  <activity_id>  (105) 
184864

>  <standard_type>  (105) 
IC50

>  <target_chembl_id>  (105) 
CHEMBL205

>  <data_validity_comment>  (105) 
None

>  <published_value>  (105) 
45

>  <document_year>  (105) 
1990

>  <target_pref_name>  (105) 
Carbonic anhydrase II

>  <assay_chembl_id>  (105) 
CHEMBL656576

>  <standard_relation>  (105) 
=

>  <assay_description>  (105) 
In vitro inhibition of human carbonic anhydrase II (0.1 nM).

>  <published_relation>  (105) 
=

>  <standard_value>  (105) 
45

>  <qudt_units>  (105) 
http://www.openphacts.org/units/Nanomolar

>  <target_tax_id>  (105) 
9606

>  <bao_label>  (105) 
single protein format

>  <published_units>  (105) 
nM

>  <pchembl_value>  (105) 
7.35

>  <published_type>  (105) 
I50

>  <activity_comment>  (105) 
None

$$$$

     RDKit          

 15 16  0  0  0  0  0  0  0  0999 V2000
    0.0000    0.0000    0.0000 C   0  0  0  0  0  0  0  0  0  0  0  0
    0.0000    0.0000    0.0000 O   0  0  0  0  0  0  0  0  0  0  0  0
    0.0000    0.0000    0.0000 C   0  0  0  0  0  0  0  0  0  0  0  0
    0.0000    0.0000    0.0000 C   0  0  0  0  0  0  0  0  0  0  0  0
    0.0000    0.0000    0.0000 C   0  0  0  0  0  0  0  0  0  0  0  0
    0.0000    0.0000    0.0000 C   0  0  0  0  0  0  0  0  0  0  0  0
    0.0000    0.0000    0.0000 C   0  0  0  0  0  0  0  0  0  0  0  0
    0.0000    0.0000    0.0000 C   0  0  0  0  0  0  0  0  0  0  0  0
    0.0000    0.0000    0.0000 N   0  0  0  0  0  0  0  0  0  0  0  0
    0.0000    0.0000    0.0000 C   0  0  0  0  0  0  0  0  0  0  0  0
    0.0000    0.0000    0.0000 C   0  0  0  0  0  0  0  0  0  0  0  0
    0.0000    0.0000    0.0000 S   0  0  0  0  0  0  0  0  0  0  0  0
    0.0000    0.0000    0.0000 O   0  0  0  0  0  0  0  0  0  0  0  0
    0.0000    0.0000    0.0000 O   0  0  0  0  0  0  0  0  0  0  0  0
    0.0000    0.0000    0.0000 N   0  0  0  0  0  0  0  0  0  0  0  0
  1  2  1  0
  2  3  1  0
  3  4  2  0
  4  5  1  0
  5  6  2  0
  6  7  1  0
  7  8  2  0
  8  9  1  0
  9 10  1  0
 10 11  2  0
  8 12  1  0
 12 13  2  0
 12 14  2  0
 12 15  1  0
 11  3  1  0
 10  6  1  0
M  END
>  <pIC50>  (106) 
7.22

>  <ChEMBL_ID>  (106) 
CHEMBL165245

>  <document_journal>  (106) 
J. Med. Chem.

>  <bao_endpoint>  (106) 
BAO_0000190

>  <potential_duplicate>  (106) 
False

>  <uo_units>  (106) 
UO_0000065

>  <canonical_smiles>  (106) 
COc1ccc2cc([nH]c2c1)S(=O)(=O)N

>  <parent_molecule_chembl_id>  (106) 
CHEMBL165245

>  <assay_type>  (106) 
B

>  <src_id>  (106) 
1

>  <ligand_efficiency>  (106) 
{u'le': u'0.66', u'bei': u'31.92', u'sei': u'7.72', u'lle': u'6.28'}

>  <standard_flag>  (106) 
True

>  <molecule_chembl_id>  (106) 
CHEMBL165245

>  <target_organism>  (106) 
Homo sapiens

>  <standard_units>  (106) 
nM

>  <record_id>  (106) 
322564

>  <document_chembl_id>  (106) 
CHEMBL1124833

>  <bao_format>  (106) 
BAO_0000357

>  <data_validity_description>  (106) 
None

>  <activity_id>  (106) 
184867

>  <standard_type>  (106) 
IC50

>  <target_chembl_id>  (106) 
CHEMBL205

>  <data_validity_comment>  (106) 
None

>  <published_value>  (106) 
60

>  <document_year>  (106) 
1990

>  <target_pref_name>  (106) 
Carbonic anhydrase II

>  <assay_chembl_id>  (106) 
CHEMBL656576

>  <standard_relation>  (106) 
=

>  <assay_description>  (106) 
In vitro inhibition of human carbonic anhydrase II (0.1 nM).

>  <published_relation>  (106) 
=

>  <standard_value>  (106) 
60

>  <qudt_units>  (106) 
http://www.openphacts.org/units/Nanomolar

>  <target_tax_id>  (106) 
9606

>  <bao_label>  (106) 
single protein format

>  <published_units>  (106) 
nM

>  <pchembl_value>  (106) 
7.22

>  <published_type>  (106) 
I50

>  <activity_comment>  (106) 
None

$$$$

     RDKit          

 18 18  0  0  0  0  0  0  0  0999 V2000
    0.0000    0.0000    0.0000 N   0  0  0  0  0  0  0  0  0  0  0  0
    0.0000    0.0000    0.0000 C   0  0  0  0  0  0  0  0  0  0  0  0
    0.0000    0.0000    0.0000 C   0  0  0  0  0  0  0  0  0  0  0  0
    0.0000    0.0000    0.0000 C   0  0  0  0  0  0  0  0  0  0  0  0
    0.0000    0.0000    0.0000 C   0  0  0  0  0  0  0  0  0  0  0  0
    0.0000    0.0000    0.0000 C   0  0  0  0  0  0  0  0  0  0  0  0
    0.0000    0.0000    0.0000 C   0  0  0  0  0  0  0  0  0  0  0  0
    0.0000    0.0000    0.0000 S   0  0  0  0  0  0  0  0  0  0  0  0
    0.0000    0.0000    0.0000 O   0  0  0  0  0  0  0  0  0  0  0  0
    0.0000    0.0000    0.0000 O   0  0  0  0  0  0  0  0  0  0  0  0
    0.0000    0.0000    0.0000 C   0  0  0  0  0  0  0  0  0  0  0  0
    0.0000    0.0000    0.0000 C   0  0  0  0  0  0  0  0  0  0  0  0
    0.0000    0.0000    0.0000 C   0  0  0  0  0  0  0  0  0  0  0  0
    0.0000    0.0000    0.0000 O   0  0  0  0  0  0  0  0  0  0  0  0
    0.0000    0.0000    0.0000 S   0  0  0  0  0  0  0  0  0  0  0  0
    0.0000    0.0000    0.0000 O   0  0  0  0  0  0  0  0  0  0  0  0
    0.0000    0.0000    0.0000 O   0  0  0  0  0  0  0  0  0  0  0  0
    0.0000    0.0000    0.0000 N   0  0  0  0  0  0  0  0  0  0  0  0
  1  2  1  0
  2  3  2  0
  3  4  1  0
  4  5  2  0
  5  6  1  0
  6  7  2  0
  7  8  1  0
  8  9  2  0
  8 10  2  0
  8 11  1  0
 11 12  1  0
 12 13  1  0
 13 14  1  0
  4 15  1  0
 15 16  2  0
 15 17  2  0
 15 18  1  0
  7  2  1  0
M  END
>  <pIC50>  (107) 
7.64

>  <ChEMBL_ID>  (107) 
CHEMBL105691

>  <document_journal>  (107) 
J. Med. Chem.

>  <bao_endpoint>  (107) 
BAO_0000190

>  <potential_duplicate>  (107) 
False

>  <uo_units>  (107) 
UO_0000065

>  <canonical_smiles>  (107) 
Nc1cc(ccc1S(=O)(=O)CCCO)S(=O)(=O)N

>  <parent_molecule_chembl_id>  (107) 
CHEMBL105691

>  <assay_type>  (107) 
F

>  <src_id>  (107) 
1

>  <ligand_efficiency>  (107) 
None

>  <standard_flag>  (107) 
True

>  <molecule_chembl_id>  (107) 
CHEMBL105691

>  <target_organism>  (107) 
Homo sapiens

>  <standard_units>  (107) 
nM

>  <record_id>  (107) 
197008

>  <document_chembl_id>  (107) 
CHEMBL1125912

>  <bao_format>  (107) 
BAO_0000019

>  <data_validity_description>  (107) 
None

>  <activity_id>  (107) 
184906

>  <standard_type>  (107) 
IC50

>  <target_chembl_id>  (107) 
CHEMBL205

>  <data_validity_comment>  (107) 
None

>  <published_value>  (107) 
23

>  <document_year>  (107) 
1991

>  <target_pref_name>  (107) 
Carbonic anhydrase II

>  <assay_chembl_id>  (107) 
CHEMBL694391

>  <standard_relation>  (107) 
=

>  <assay_description>  (107) 
Inhibitory activity against human carbonic anhydrase II using pH stat assay

>  <published_relation>  (107) 
=

>  <standard_value>  (107) 
23

>  <qudt_units>  (107) 
http://www.openphacts.org/units/Nanomolar

>  <target_tax_id>  (107) 
9606

>  <bao_label>  (107) 
assay format

>  <published_units>  (107) 
nM

>  <pchembl_value>  (107) 
7.64

>  <published_type>  (107) 
I50

>  <activity_comment>  (107) 
None

$$$$

     RDKit          

 18 18  0  0  0  0  0  0  0  0999 V2000
    0.0000    0.0000    0.0000 C   0  0  0  0  0  0  0  0  0  0  0  0
    0.0000    0.0000    0.0000 C   0  0  0  0  0  0  0  0  0  0  0  0
    0.0000    0.0000    0.0000 O   0  0  0  0  0  0  0  0  0  0  0  0
    0.0000    0.0000    0.0000 O   0  0  0  0  0  0  0  0  0  0  0  0
    0.0000    0.0000    0.0000 C   0  0  0  0  0  0  0  0  0  0  0  0
    0.0000    0.0000    0.0000 C   0  0  0  0  0  0  0  0  0  0  0  0
    0.0000    0.0000    0.0000 S   0  0  0  0  0  0  0  0  0  0  0  0
    0.0000    0.0000    0.0000 O   0  0  0  0  0  0  0  0  0  0  0  0
    0.0000    0.0000    0.0000 O   0  0  0  0  0  0  0  0  0  0  0  0
    0.0000    0.0000    0.0000 C   0  0  0  0  0  0  0  0  0  0  0  0
    0.0000    0.0000    0.0000 C   0  0  0  0  0  0  0  0  0  0  0  0
    0.0000    0.0000    0.0000 C   0  0  0  0  0  0  0  0  0  0  0  0
    0.0000    0.0000    0.0000 C   0  0  0  0  0  0  0  0  0  0  0  0
    0.0000    0.0000    0.0000 S   0  0  0  0  0  0  0  0  0  0  0  0
    0.0000    0.0000    0.0000 S   0  0  0  0  0  0  0  0  0  0  0  0
    0.0000    0.0000    0.0000 O   0  0  0  0  0  0  0  0  0  0  0  0
    0.0000    0.0000    0.0000 O   0  0  0  0  0  0  0  0  0  0  0  0
    0.0000    0.0000    0.0000 N   0  0  0  0  0  0  0  0  0  0  0  0
  1  2  1  0
  2  3  2  0
  2  4  1  0
  4  5  1  0
  5  6  1  0
  6  7  1  0
  7  8  2  0
  7  9  2  0
  7 10  1  0
 10 11  2  0
 11 12  1  0
 12 13  2  0
 13 14  1  0
 13 15  1  0
 15 16  2  0
 15 17  2  0
 15 18  1  0
 14 10  1  0
M  END
>  <pIC50>  (108) 
8.26

>  <ChEMBL_ID>  (108) 
CHEMBL104442

>  <document_journal>  (108) 
J. Med. Chem.

>  <bao_endpoint>  (108) 
BAO_0000190

>  <potential_duplicate>  (108) 
False

>  <uo_units>  (108) 
UO_0000065

>  <canonical_smiles>  (108) 
CC(=O)OCCS(=O)(=O)c1ccc(s1)S(=O)(=O)N

>  <parent_molecule_chembl_id>  (108) 
CHEMBL104442

>  <assay_type>  (108) 
F

>  <src_id>  (108) 
1

>  <ligand_efficiency>  (108) 
None

>  <standard_flag>  (108) 
True

>  <molecule_chembl_id>  (108) 
CHEMBL104442

>  <target_organism>  (108) 
Homo sapiens

>  <standard_units>  (108) 
nM

>  <record_id>  (108) 
197033

>  <document_chembl_id>  (108) 
CHEMBL1125912

>  <bao_format>  (108) 
BAO_0000019

>  <data_validity_description>  (108) 
None

>  <activity_id>  (108) 
184910

>  <standard_type>  (108) 
IC50

>  <target_chembl_id>  (108) 
CHEMBL205

>  <data_validity_comment>  (108) 
None

>  <published_value>  (108) 
5.5

>  <document_year>  (108) 
1991

>  <target_pref_name>  (108) 
Carbonic anhydrase II

>  <assay_chembl_id>  (108) 
CHEMBL694391

>  <standard_relation>  (108) 
=

>  <assay_description>  (108) 
Inhibitory activity against human carbonic anhydrase II using pH stat assay

>  <published_relation>  (108) 
=

>  <standard_value>  (108) 
5.5

>  <qudt_units>  (108) 
http://www.openphacts.org/units/Nanomolar

>  <target_tax_id>  (108) 
9606

>  <bao_label>  (108) 
assay format

>  <published_units>  (108) 
nM

>  <pchembl_value>  (108) 
8.26

>  <published_type>  (108) 
I50

>  <activity_comment>  (108) 
None

$$$$

     RDKit          

 14 15  0  0  0  0  0  0  0  0999 V2000
    0.0000    0.0000    0.0000 N   0  0  0  0  0  0  0  0  0  0  0  0
    0.0000    0.0000    0.0000 S   0  0  0  0  0  0  0  0  0  0  0  0
    0.0000    0.0000    0.0000 O   0  0  0  0  0  0  0  0  0  0  0  0
    0.0000    0.0000    0.0000 O   0  0  0  0  0  0  0  0  0  0  0  0
    0.0000    0.0000    0.0000 C   0  0  0  0  0  0  0  0  0  0  0  0
    0.0000    0.0000    0.0000 C   0  0  0  0  0  0  0  0  0  0  0  0
    0.0000    0.0000    0.0000 C   0  0  0  0  0  0  0  0  0  0  0  0
    0.0000    0.0000    0.0000 C   0  0  0  0  0  0  0  0  0  0  0  0
    0.0000    0.0000    0.0000 C   0  0  0  0  0  0  0  0  0  0  0  0
    0.0000    0.0000    0.0000 O   0  0  0  0  0  0  0  0  0  0  0  0
    0.0000    0.0000    0.0000 C   0  0  0  0  0  0  0  0  0  0  0  0
    0.0000    0.0000    0.0000 C   0  0  0  0  0  0  0  0  0  0  0  0
    0.0000    0.0000    0.0000 C   0  0  0  0  0  0  0  0  0  0  0  0
    0.0000    0.0000    0.0000 N   0  0  0  0  0  0  0  0  0  0  0  0
  1  2  1  0
  2  3  2  0
  2  4  2  0
  2  5  1  0
  5  6  2  0
  6  7  1  0
  7  8  2  0
  8  9  1  0
  9 10  1  0
  9 11  2  0
 11 12  1  0
 12 13  2  0
 13 14  1  0
 14  5  1  0
 13  7  1  0
M  END
>  <pIC50>  (109) 
7.66

>  <ChEMBL_ID>  (109) 
CHEMBL354238

>  <document_journal>  (109) 
J. Med. Chem.

>  <bao_endpoint>  (109) 
BAO_0000190

>  <potential_duplicate>  (109) 
False

>  <uo_units>  (109) 
UO_0000065

>  <canonical_smiles>  (109) 
NS(=O)(=O)c1cc2cc(O)ccc2[nH]1

>  <parent_molecule_chembl_id>  (109) 
CHEMBL354238

>  <assay_type>  (109) 
B

>  <src_id>  (109) 
1

>  <ligand_efficiency>  (109) 
{u'le': u'0.75', u'bei': u'36.08', u'sei': u'7.32', u'lle': u'6.95'}

>  <standard_flag>  (109) 
True

>  <molecule_chembl_id>  (109) 
CHEMBL354238

>  <target_organism>  (109) 
Homo sapiens

>  <standard_units>  (109) 
nM

>  <record_id>  (109) 
322578

>  <document_chembl_id>  (109) 
CHEMBL1124833

>  <bao_format>  (109) 
BAO_0000357

>  <data_validity_description>  (109) 
None

>  <activity_id>  (109) 
186377

>  <standard_type>  (109) 
IC50

>  <target_chembl_id>  (109) 
CHEMBL205

>  <data_validity_comment>  (109) 
None

>  <published_value>  (109) 
22

>  <document_year>  (109) 
1990

>  <target_pref_name>  (109) 
Carbonic anhydrase II

>  <assay_chembl_id>  (109) 
CHEMBL656576

>  <standard_relation>  (109) 
=

>  <assay_description>  (109) 
In vitro inhibition of human carbonic anhydrase II (0.1 nM).

>  <published_relation>  (109) 
=

>  <standard_value>  (109) 
22

>  <qudt_units>  (109) 
http://www.openphacts.org/units/Nanomolar

>  <target_tax_id>  (109) 
9606

>  <bao_label>  (109) 
single protein format

>  <published_units>  (109) 
nM

>  <pchembl_value>  (109) 
7.66

>  <published_type>  (109) 
I50

>  <activity_comment>  (109) 
None

$$$$

     RDKit          

 17 17  0  0  0  0  0  0  0  0999 V2000
    0.0000    0.0000    0.0000 N   0  0  0  0  0  0  0  0  0  0  0  0
    0.0000    0.0000    0.0000 S   0  0  0  0  0  0  0  0  0  0  0  0
    0.0000    0.0000    0.0000 O   0  0  0  0  0  0  0  0  0  0  0  0
    0.0000    0.0000    0.0000 O   0  0  0  0  0  0  0  0  0  0  0  0
    0.0000    0.0000    0.0000 C   0  0  0  0  0  0  0  0  0  0  0  0
    0.0000    0.0000    0.0000 C   0  0  0  0  0  0  0  0  0  0  0  0
    0.0000    0.0000    0.0000 C   0  0  0  0  0  0  0  0  0  0  0  0
    0.0000    0.0000    0.0000 C   0  0  0  0  0  0  0  0  0  0  0  0
    0.0000    0.0000    0.0000 C   0  0  0  0  0  0  0  0  0  0  0  0
    0.0000    0.0000    0.0000 F   0  0  0  0  0  0  0  0  0  0  0  0
    0.0000    0.0000    0.0000 C   0  0  0  0  0  0  0  0  0  0  0  0
    0.0000    0.0000    0.0000 S   0  0  0  0  0  0  0  0  0  0  0  0
    0.0000    0.0000    0.0000 O   0  0  0  0  0  0  0  0  0  0  0  0
    0.0000    0.0000    0.0000 O   0  0  0  0  0  0  0  0  0  0  0  0
    0.0000    0.0000    0.0000 C   0  0  0  0  0  0  0  0  0  0  0  0
    0.0000    0.0000    0.0000 C   0  0  0  0  0  0  0  0  0  0  0  0
    0.0000    0.0000    0.0000 O   0  0  0  0  0  0  0  0  0  0  0  0
  1  2  1  0
  2  3  2  0
  2  4  2  0
  2  5  1  0
  5  6  2  0
  6  7  1  0
  7  8  2  0
  8  9  1  0
  9 10  1  0
  9 11  2  0
  8 12  1  0
 12 13  2  0
 12 14  2  0
 12 15  1  0
 15 16  1  0
 16 17  1  0
 11  5  1  0
M  END
>  <pIC50>  (110) 
8.3

>  <ChEMBL_ID>  (110) 
CHEMBL104929

>  <document_journal>  (110) 
J. Med. Chem.

>  <bao_endpoint>  (110) 
BAO_0000190

>  <potential_duplicate>  (110) 
False

>  <uo_units>  (110) 
UO_0000065

>  <canonical_smiles>  (110) 
NS(=O)(=O)c1ccc(c(F)c1)S(=O)(=O)CCO

>  <parent_molecule_chembl_id>  (110) 
CHEMBL104929

>  <assay_type>  (110) 
F

>  <src_id>  (110) 
1

>  <ligand_efficiency>  (110) 
None

>  <standard_flag>  (110) 
True

>  <molecule_chembl_id>  (110) 
CHEMBL104929

>  <target_organism>  (110) 
Homo sapiens

>  <standard_units>  (110) 
nM

>  <record_id>  (110) 
197005

>  <document_chembl_id>  (110) 
CHEMBL1125912

>  <bao_format>  (110) 
BAO_0000019

>  <data_validity_description>  (110) 
None

>  <activity_id>  (110) 
186434

>  <standard_type>  (110) 
IC50

>  <target_chembl_id>  (110) 
CHEMBL205

>  <data_validity_comment>  (110) 
None

>  <published_value>  (110) 
5

>  <document_year>  (110) 
1991

>  <target_pref_name>  (110) 
Carbonic anhydrase II

>  <assay_chembl_id>  (110) 
CHEMBL694391

>  <standard_relation>  (110) 
=

>  <assay_description>  (110) 
Inhibitory activity against human carbonic anhydrase II using pH stat assay

>  <published_relation>  (110) 
=

>  <standard_value>  (110) 
5

>  <qudt_units>  (110) 
http://www.openphacts.org/units/Nanomolar

>  <target_tax_id>  (110) 
9606

>  <bao_label>  (110) 
assay format

>  <published_units>  (110) 
nM

>  <pchembl_value>  (110) 
8.3

>  <published_type>  (110) 
I50

>  <activity_comment>  (110) 
None

$$$$

     RDKit          

 15 15  0  0  0  0  0  0  0  0999 V2000
    0.0000    0.0000    0.0000 N   0  0  0  0  0  0  0  0  0  0  0  0
    0.0000    0.0000    0.0000 S   0  0  0  0  0  0  0  0  0  0  0  0
    0.0000    0.0000    0.0000 O   0  0  0  0  0  0  0  0  0  0  0  0
    0.0000    0.0000    0.0000 O   0  0  0  0  0  0  0  0  0  0  0  0
    0.0000    0.0000    0.0000 C   0  0  0  0  0  0  0  0  0  0  0  0
    0.0000    0.0000    0.0000 C   0  0  0  0  0  0  0  0  0  0  0  0
    0.0000    0.0000    0.0000 C   0  0  0  0  0  0  0  0  0  0  0  0
    0.0000    0.0000    0.0000 C   0  0  0  0  0  0  0  0  0  0  0  0
    0.0000    0.0000    0.0000 S   0  0  0  0  0  0  0  0  0  0  0  0
    0.0000    0.0000    0.0000 C   0  0  0  0  0  0  0  0  0  0  0  0
    0.0000    0.0000    0.0000 C   0  0  0  0  0  0  0  0  0  0  0  0
    0.0000    0.0000    0.0000 C   0  0  0  0  0  0  0  0  0  0  0  0
    0.0000    0.0000    0.0000 C   0  0  0  0  0  0  0  0  0  0  0  0
    0.0000    0.0000    0.0000 O   0  0  0  0  0  0  0  0  0  0  0  0
    0.0000    0.0000    0.0000 S   0  0  0  0  0  0  0  0  0  0  0  0
  1  2  1  0
  2  3  2  0
  2  4  2  0
  2  5  1  0
  5  6  2  0
  6  7  1  0
  7  8  2  0
  8  9  1  0
  9 10  1  0
 10 11  1  0
 11 12  1  0
 12 13  1  0
 13 14  1  0
  8 15  1  0
 15  5  1  0
M  END
>  <pIC50>  (111) 
8.52

>  <ChEMBL_ID>  (111) 
CHEMBL107437

>  <document_journal>  (111) 
J. Med. Chem.

>  <bao_endpoint>  (111) 
BAO_0000190

>  <potential_duplicate>  (111) 
False

>  <uo_units>  (111) 
UO_0000065

>  <canonical_smiles>  (111) 
NS(=O)(=O)c1ccc(SCCCCO)s1

>  <parent_molecule_chembl_id>  (111) 
CHEMBL107437

>  <assay_type>  (111) 
F

>  <src_id>  (111) 
1

>  <ligand_efficiency>  (111) 
None

>  <standard_flag>  (111) 
True

>  <molecule_chembl_id>  (111) 
CHEMBL107437

>  <target_organism>  (111) 
Homo sapiens

>  <standard_units>  (111) 
nM

>  <record_id>  (111) 
197027

>  <document_chembl_id>  (111) 
CHEMBL1125912

>  <bao_format>  (111) 
BAO_0000019

>  <data_validity_description>  (111) 
None

>  <activity_id>  (111) 
186440

>  <standard_type>  (111) 
IC50

>  <target_chembl_id>  (111) 
CHEMBL205

>  <data_validity_comment>  (111) 
None

>  <published_value>  (111) 
3

>  <document_year>  (111) 
1991

>  <target_pref_name>  (111) 
Carbonic anhydrase II

>  <assay_chembl_id>  (111) 
CHEMBL694391

>  <standard_relation>  (111) 
=

>  <assay_description>  (111) 
Inhibitory activity against human carbonic anhydrase II using pH stat assay

>  <published_relation>  (111) 
=

>  <standard_value>  (111) 
3

>  <qudt_units>  (111) 
http://www.openphacts.org/units/Nanomolar

>  <target_tax_id>  (111) 
9606

>  <bao_label>  (111) 
assay format

>  <published_units>  (111) 
nM

>  <pchembl_value>  (111) 
8.52

>  <published_type>  (111) 
I50

>  <activity_comment>  (111) 
None

$$$$

     RDKit          

 16 18  0  0  0  0  0  0  0  0999 V2000
    0.0000    0.0000    0.0000 N   0  0  0  0  0  0  0  0  0  0  0  0
    0.0000    0.0000    0.0000 S   0  0  0  0  0  0  0  0  0  0  0  0
    0.0000    0.0000    0.0000 O   0  0  0  0  0  0  0  0  0  0  0  0
    0.0000    0.0000    0.0000 O   0  0  0  0  0  0  0  0  0  0  0  0
    0.0000    0.0000    0.0000 C   0  0  0  0  0  0  0  0  0  0  0  0
    0.0000    0.0000    0.0000 C   0  0  0  0  0  0  0  0  0  0  0  0
    0.0000    0.0000    0.0000 C   0  0  0  0  0  0  0  0  0  0  0  0
    0.0000    0.0000    0.0000 C   0  0  0  0  0  0  0  0  0  0  0  0
    0.0000    0.0000    0.0000 C   0  0  0  0  0  0  0  0  0  0  0  0
    0.0000    0.0000    0.0000 O   0  0  0  0  0  0  0  0  0  0  0  0
    0.0000    0.0000    0.0000 C   0  0  0  0  0  0  0  0  0  0  0  0
    0.0000    0.0000    0.0000 O   0  0  0  0  0  0  0  0  0  0  0  0
    0.0000    0.0000    0.0000 C   0  0  0  0  0  0  0  0  0  0  0  0
    0.0000    0.0000    0.0000 C   0  0  0  0  0  0  0  0  0  0  0  0
    0.0000    0.0000    0.0000 C   0  0  0  0  0  0  0  0  0  0  0  0
    0.0000    0.0000    0.0000 N   0  0  0  0  0  0  0  0  0  0  0  0
  1  2  1  0
  2  3  2  0
  2  4  2  0
  2  5  1  0
  5  6  2  0
  6  7  1  0
  7  8  2  0
  8  9  1  0
  9 10  1  0
 10 11  1  0
 11 12  1  0
 12 13  1  0
 13 14  1  0
 14 15  2  0
 15 16  1  0
 16  5  1  0
 15  7  1  0
 13  9  2  0
M  END
>  <pIC50>  (112) 
7.6

>  <ChEMBL_ID>  (112) 
CHEMBL163094

>  <document_journal>  (112) 
J. Med. Chem.

>  <bao_endpoint>  (112) 
BAO_0000190

>  <potential_duplicate>  (112) 
False

>  <uo_units>  (112) 
UO_0000065

>  <canonical_smiles>  (112) 
NS(=O)(=O)c1cc2cc3OCOc3cc2[nH]1

>  <parent_molecule_chembl_id>  (112) 
CHEMBL163094

>  <assay_type>  (112) 
B

>  <src_id>  (112) 
1

>  <ligand_efficiency>  (112) 
{u'le': u'0.65', u'bei': u'31.64', u'sei': u'7.4', u'lle': u'6.88'}

>  <standard_flag>  (112) 
True

>  <molecule_chembl_id>  (112) 
CHEMBL163094

>  <target_organism>  (112) 
Homo sapiens

>  <standard_units>  (112) 
nM

>  <record_id>  (112) 
322563

>  <document_chembl_id>  (112) 
CHEMBL1124833

>  <bao_format>  (112) 
BAO_0000357

>  <data_validity_description>  (112) 
None

>  <activity_id>  (112) 
188766

>  <standard_type>  (112) 
IC50

>  <target_chembl_id>  (112) 
CHEMBL205

>  <data_validity_comment>  (112) 
None

>  <published_value>  (112) 
25

>  <document_year>  (112) 
1990

>  <target_pref_name>  (112) 
Carbonic anhydrase II

>  <assay_chembl_id>  (112) 
CHEMBL656576

>  <standard_relation>  (112) 
=

>  <assay_description>  (112) 
In vitro inhibition of human carbonic anhydrase II (0.1 nM).

>  <published_relation>  (112) 
=

>  <standard_value>  (112) 
25

>  <qudt_units>  (112) 
http://www.openphacts.org/units/Nanomolar

>  <target_tax_id>  (112) 
9606

>  <bao_label>  (112) 
single protein format

>  <published_units>  (112) 
nM

>  <pchembl_value>  (112) 
7.6

>  <published_type>  (112) 
I50

>  <activity_comment>  (112) 
None

$$$$

     RDKit          

 20 20  0  0  0  0  0  0  0  0999 V2000
    0.0000    0.0000    0.0000 C   0  0  0  0  0  0  0  0  0  0  0  0
    0.0000    0.0000    0.0000 O   0  0  0  0  0  0  0  0  0  0  0  0
    0.0000    0.0000    0.0000 C   0  0  0  0  0  0  0  0  0  0  0  0
    0.0000    0.0000    0.0000 O   0  0  0  0  0  0  0  0  0  0  0  0
    0.0000    0.0000    0.0000 C   0  0  0  0  0  0  0  0  0  0  0  0
    0.0000    0.0000    0.0000 C   0  0  0  0  0  0  0  0  0  0  0  0
    0.0000    0.0000    0.0000 C   0  0  0  0  0  0  0  0  0  0  0  0
    0.0000    0.0000    0.0000 C   0  0  0  0  0  0  0  0  0  0  0  0
    0.0000    0.0000    0.0000 C   0  0  0  0  0  0  0  0  0  0  0  0
    0.0000    0.0000    0.0000 C   0  0  0  0  0  0  0  0  0  0  0  0
    0.0000    0.0000    0.0000 S   0  0  0  0  0  0  0  0  0  0  0  0
    0.0000    0.0000    0.0000 O   0  0  0  0  0  0  0  0  0  0  0  0
    0.0000    0.0000    0.0000 O   0  0  0  0  0  0  0  0  0  0  0  0
    0.0000    0.0000    0.0000 C   0  0  0  0  0  0  0  0  0  0  0  0
    0.0000    0.0000    0.0000 C   0  0  0  0  0  0  0  0  0  0  0  0
    0.0000    0.0000    0.0000 O   0  0  0  0  0  0  0  0  0  0  0  0
    0.0000    0.0000    0.0000 S   0  0  0  0  0  0  0  0  0  0  0  0
    0.0000    0.0000    0.0000 O   0  0  0  0  0  0  0  0  0  0  0  0
    0.0000    0.0000    0.0000 O   0  0  0  0  0  0  0  0  0  0  0  0
    0.0000    0.0000    0.0000 N   0  0  0  0  0  0  0  0  0  0  0  0
  1  2  1  0
  2  3  1  0
  3  4  2  0
  3  5  1  0
  5  6  2  0
  6  7  1  0
  7  8  2  0
  8  9  1  0
  9 10  2  0
 10 11  1  0
 11 12  2  0
 11 13  2  0
 11 14  1  0
 14 15  1  0
 15 16  1  0
  7 17  1  0
 17 18  2  0
 17 19  2  0
 17 20  1  0
 10  5  1  0
M  END
>  <pIC50>  (113) 
7.52

>  <ChEMBL_ID>  (113) 
CHEMBL104961

>  <document_journal>  (113) 
J. Med. Chem.

>  <bao_endpoint>  (113) 
BAO_0000190

>  <potential_duplicate>  (113) 
False

>  <uo_units>  (113) 
UO_0000065

>  <canonical_smiles>  (113) 
COC(=O)c1cc(ccc1S(=O)(=O)CCO)S(=O)(=O)N

>  <parent_molecule_chembl_id>  (113) 
CHEMBL104961

>  <assay_type>  (113) 
F

>  <src_id>  (113) 
1

>  <ligand_efficiency>  (113) 
None

>  <standard_flag>  (113) 
True

>  <molecule_chembl_id>  (113) 
CHEMBL104961

>  <target_organism>  (113) 
Homo sapiens

>  <standard_units>  (113) 
nM

>  <record_id>  (113) 
197014

>  <document_chembl_id>  (113) 
CHEMBL1125912

>  <bao_format>  (113) 
BAO_0000019

>  <data_validity_description>  (113) 
None

>  <activity_id>  (113) 
188821

>  <standard_type>  (113) 
IC50

>  <target_chembl_id>  (113) 
CHEMBL205

>  <data_validity_comment>  (113) 
None

>  <published_value>  (113) 
30

>  <document_year>  (113) 
1991

>  <target_pref_name>  (113) 
Carbonic anhydrase II

>  <assay_chembl_id>  (113) 
CHEMBL694391

>  <standard_relation>  (113) 
=

>  <assay_description>  (113) 
Inhibitory activity against human carbonic anhydrase II using pH stat assay

>  <published_relation>  (113) 
=

>  <standard_value>  (113) 
30

>  <qudt_units>  (113) 
http://www.openphacts.org/units/Nanomolar

>  <target_tax_id>  (113) 
9606

>  <bao_label>  (113) 
assay format

>  <published_units>  (113) 
nM

>  <pchembl_value>  (113) 
7.52

>  <published_type>  (113) 
I50

>  <activity_comment>  (113) 
None

$$$$

     RDKit          

 16 16  0  0  0  0  0  0  0  0999 V2000
    0.0000    0.0000    0.0000 N   0  0  0  0  0  0  0  0  0  0  0  0
    0.0000    0.0000    0.0000 S   0  0  0  0  0  0  0  0  0  0  0  0
    0.0000    0.0000    0.0000 O   0  0  0  0  0  0  0  0  0  0  0  0
    0.0000    0.0000    0.0000 O   0  0  0  0  0  0  0  0  0  0  0  0
    0.0000    0.0000    0.0000 C   0  0  0  0  0  0  0  0  0  0  0  0
    0.0000    0.0000    0.0000 C   0  0  0  0  0  0  0  0  0  0  0  0
    0.0000    0.0000    0.0000 C   0  0  0  0  0  0  0  0  0  0  0  0
    0.0000    0.0000    0.0000 C   0  0  0  0  0  0  0  0  0  0  0  0
    0.0000    0.0000    0.0000 S   0  0  0  0  0  0  0  0  0  0  0  0
    0.0000    0.0000    0.0000 C   0  0  0  0  0  0  0  0  0  0  0  0
    0.0000    0.0000    0.0000 C   0  0  0  0  0  0  0  0  0  0  0  0
    0.0000    0.0000    0.0000 C   0  0  0  0  0  0  0  0  0  0  0  0
    0.0000    0.0000    0.0000 O   0  0  0  0  0  0  0  0  0  0  0  0
    0.0000    0.0000    0.0000 C   0  0  0  0  0  0  0  0  0  0  0  0
    0.0000    0.0000    0.0000 F   0  0  0  0  0  0  0  0  0  0  0  0
    0.0000    0.0000    0.0000 C   0  0  0  0  0  0  0  0  0  0  0  0
  1  2  1  0
  2  3  2  0
  2  4  2  0
  2  5  1  0
  5  6  2  0
  6  7  1  0
  7  8  2  0
  8  9  1  0
  9 10  1  0
 10 11  1  0
 11 12  1  0
 12 13  1  0
  8 14  1  0
 14 15  1  0
 14 16  2  0
 16  5  1  0
M  END
>  <pIC50>  (114) 
8.46

>  <ChEMBL_ID>  (114) 
CHEMBL322223

>  <document_journal>  (114) 
J. Med. Chem.

>  <bao_endpoint>  (114) 
BAO_0000190

>  <potential_duplicate>  (114) 
False

>  <uo_units>  (114) 
UO_0000065

>  <canonical_smiles>  (114) 
NS(=O)(=O)c1ccc(SCCCO)c(F)c1

>  <parent_molecule_chembl_id>  (114) 
CHEMBL322223

>  <assay_type>  (114) 
F

>  <src_id>  (114) 
1

>  <ligand_efficiency>  (114) 
None

>  <standard_flag>  (114) 
True

>  <molecule_chembl_id>  (114) 
CHEMBL322223

>  <target_organism>  (114) 
Homo sapiens

>  <standard_units>  (114) 
nM

>  <record_id>  (114) 
197004

>  <document_chembl_id>  (114) 
CHEMBL1125912

>  <bao_format>  (114) 
BAO_0000019

>  <data_validity_description>  (114) 
None

>  <activity_id>  (114) 
191249

>  <standard_type>  (114) 
IC50

>  <target_chembl_id>  (114) 
CHEMBL205

>  <data_validity_comment>  (114) 
None

>  <published_value>  (114) 
3.5

>  <document_year>  (114) 
1991

>  <target_pref_name>  (114) 
Carbonic anhydrase II

>  <assay_chembl_id>  (114) 
CHEMBL694391

>  <standard_relation>  (114) 
=

>  <assay_description>  (114) 
Inhibitory activity against human carbonic anhydrase II using pH stat assay

>  <published_relation>  (114) 
=

>  <standard_value>  (114) 
3.5

>  <qudt_units>  (114) 
http://www.openphacts.org/units/Nanomolar

>  <target_tax_id>  (114) 
9606

>  <bao_label>  (114) 
assay format

>  <published_units>  (114) 
nM

>  <pchembl_value>  (114) 
8.46

>  <published_type>  (114) 
I50

>  <activity_comment>  (114) 
None

$$$$

     RDKit          

 15 15  0  0  0  0  0  0  0  0999 V2000
    0.0000    0.0000    0.0000 N   0  0  0  0  0  0  0  0  0  0  0  0
    0.0000    0.0000    0.0000 S   0  0  0  0  0  0  0  0  0  0  0  0
    0.0000    0.0000    0.0000 O   0  0  0  0  0  0  0  0  0  0  0  0
    0.0000    0.0000    0.0000 O   0  0  0  0  0  0  0  0  0  0  0  0
    0.0000    0.0000    0.0000 C   0  0  0  0  0  0  0  0  0  0  0  0
    0.0000    0.0000    0.0000 C   0  0  0  0  0  0  0  0  0  0  0  0
    0.0000    0.0000    0.0000 C   0  0  0  0  0  0  0  0  0  0  0  0
    0.0000    0.0000    0.0000 C   0  0  0  0  0  0  0  0  0  0  0  0
    0.0000    0.0000    0.0000 C   0  0  0  0  0  0  0  0  0  0  0  0
    0.0000    0.0000    0.0000 C   0  0  0  0  0  0  0  0  0  0  0  0
    0.0000    0.0000    0.0000 C   0  0  0  0  0  0  0  0  0  0  0  0
    0.0000    0.0000    0.0000 C   0  0  0  0  0  0  0  0  0  0  0  0
    0.0000    0.0000    0.0000 O   0  0  0  0  0  0  0  0  0  0  0  0
    0.0000    0.0000    0.0000 C   0  0  0  0  0  0  0  0  0  0  0  0
    0.0000    0.0000    0.0000 C   0  0  0  0  0  0  0  0  0  0  0  0
  1  2  1  0
  2  3  2  0
  2  4  2  0
  2  5  1  0
  5  6  2  0
  6  7  1  0
  7  8  2  0
  8  9  1  0
  9 10  1  0
 10 11  1  0
 11 12  1  0
 12 13  1  0
  8 14  1  0
 14 15  2  0
 15  5  1  0
M  END
>  <pIC50>  (115) 
7.82

>  <ChEMBL_ID>  (115) 
CHEMBL316582

>  <document_journal>  (115) 
J. Med. Chem.

>  <bao_endpoint>  (115) 
BAO_0000190

>  <potential_duplicate>  (115) 
False

>  <uo_units>  (115) 
UO_0000065

>  <canonical_smiles>  (115) 
NS(=O)(=O)c1ccc(CCCCO)cc1

>  <parent_molecule_chembl_id>  (115) 
CHEMBL316582

>  <assay_type>  (115) 
F

>  <src_id>  (115) 
1

>  <ligand_efficiency>  (115) 
None

>  <standard_flag>  (115) 
True

>  <molecule_chembl_id>  (115) 
CHEMBL316582

>  <target_organism>  (115) 
Homo sapiens

>  <standard_units>  (115) 
nM

>  <record_id>  (115) 
197023

>  <document_chembl_id>  (115) 
CHEMBL1125912

>  <bao_format>  (115) 
BAO_0000019

>  <data_validity_description>  (115) 
None

>  <activity_id>  (115) 
191255

>  <standard_type>  (115) 
IC50

>  <target_chembl_id>  (115) 
CHEMBL205

>  <data_validity_comment>  (115) 
None

>  <published_value>  (115) 
15

>  <document_year>  (115) 
1991

>  <target_pref_name>  (115) 
Carbonic anhydrase II

>  <assay_chembl_id>  (115) 
CHEMBL694391

>  <standard_relation>  (115) 
=

>  <assay_description>  (115) 
Inhibitory activity against human carbonic anhydrase II using pH stat assay

>  <published_relation>  (115) 
=

>  <standard_value>  (115) 
15

>  <qudt_units>  (115) 
http://www.openphacts.org/units/Nanomolar

>  <target_tax_id>  (115) 
9606

>  <bao_label>  (115) 
assay format

>  <published_units>  (115) 
nM

>  <pchembl_value>  (115) 
7.82

>  <published_type>  (115) 
I50

>  <activity_comment>  (115) 
None

$$$$

     RDKit          

 17 18  0  0  0  0  0  0  0  0999 V2000
    0.0000    0.0000    0.0000 C   0  0  0  0  0  0  0  0  0  0  0  0
    0.0000    0.0000    0.0000 C   0  0  0  0  0  0  0  0  0  0  0  0
    0.0000    0.0000    0.0000 O   0  0  0  0  0  0  0  0  0  0  0  0
    0.0000    0.0000    0.0000 O   0  0  0  0  0  0  0  0  0  0  0  0
    0.0000    0.0000    0.0000 C   0  0  0  0  0  0  0  0  0  0  0  0
    0.0000    0.0000    0.0000 C   0  0  0  0  0  0  0  0  0  0  0  0
    0.0000    0.0000    0.0000 C   0  0  0  0  0  0  0  0  0  0  0  0
    0.0000    0.0000    0.0000 C   0  0  0  0  0  0  0  0  0  0  0  0
    0.0000    0.0000    0.0000 O   0  0  0  0  0  0  0  0  0  0  0  0
    0.0000    0.0000    0.0000 C   0  0  0  0  0  0  0  0  0  0  0  0
    0.0000    0.0000    0.0000 C   0  0  0  0  0  0  0  0  0  0  0  0
    0.0000    0.0000    0.0000 C   0  0  0  0  0  0  0  0  0  0  0  0
    0.0000    0.0000    0.0000 C   0  0  0  0  0  0  0  0  0  0  0  0
    0.0000    0.0000    0.0000 S   0  0  0  0  0  0  0  0  0  0  0  0
    0.0000    0.0000    0.0000 O   0  0  0  0  0  0  0  0  0  0  0  0
    0.0000    0.0000    0.0000 O   0  0  0  0  0  0  0  0  0  0  0  0
    0.0000    0.0000    0.0000 N   0  0  0  0  0  0  0  0  0  0  0  0
  1  2  1  0
  2  3  2  0
  2  4  1  0
  4  5  1  0
  5  6  2  0
  6  7  1  0
  7  8  2  0
  8  9  1  0
  9 10  1  0
 10 11  2  0
 11 12  1  0
 12 13  2  0
 10 14  1  0
 14 15  2  0
 14 16  2  0
 14 17  1  0
 13  5  1  0
 12  8  1  0
M  END
>  <pIC50>  (116) 
8.19

>  <ChEMBL_ID>  (116) 
CHEMBL165124

>  <document_journal>  (116) 
J. Med. Chem.

>  <bao_endpoint>  (116) 
BAO_0000190

>  <potential_duplicate>  (116) 
False

>  <uo_units>  (116) 
UO_0000065

>  <canonical_smiles>  (116) 
CC(=O)Oc1ccc2oc(cc2c1)S(=O)(=O)N

>  <parent_molecule_chembl_id>  (116) 
CHEMBL165124

>  <assay_type>  (116) 
B

>  <src_id>  (116) 
1

>  <ligand_efficiency>  (116) 
{u'le': u'0.66', u'bei': u'32.07', u'sei': u'7.58', u'lle': u'7.46'}

>  <standard_flag>  (116) 
True

>  <molecule_chembl_id>  (116) 
CHEMBL165124

>  <target_organism>  (116) 
Homo sapiens

>  <standard_units>  (116) 
nM

>  <record_id>  (116) 
322581

>  <document_chembl_id>  (116) 
CHEMBL1124833

>  <bao_format>  (116) 
BAO_0000357

>  <data_validity_description>  (116) 
None

>  <activity_id>  (116) 
192335

>  <standard_type>  (116) 
IC50

>  <target_chembl_id>  (116) 
CHEMBL205

>  <data_validity_comment>  (116) 
None

>  <published_value>  (116) 
6.5

>  <document_year>  (116) 
1990

>  <target_pref_name>  (116) 
Carbonic anhydrase II

>  <assay_chembl_id>  (116) 
CHEMBL656576

>  <standard_relation>  (116) 
=

>  <assay_description>  (116) 
In vitro inhibition of human carbonic anhydrase II (0.1 nM).

>  <published_relation>  (116) 
=

>  <standard_value>  (116) 
6.5

>  <qudt_units>  (116) 
http://www.openphacts.org/units/Nanomolar

>  <target_tax_id>  (116) 
9606

>  <bao_label>  (116) 
single protein format

>  <published_units>  (116) 
nM

>  <pchembl_value>  (116) 
8.19

>  <published_type>  (116) 
I50

>  <activity_comment>  (116) 
None

$$$$

     RDKit          

 21 21  0  0  0  0  0  0  0  0999 V2000
    0.0000    0.0000    0.0000 C   0  0  0  0  0  0  0  0  0  0  0  0
    0.0000    0.0000    0.0000 O   0  0  0  0  0  0  0  0  0  0  0  0
    0.0000    0.0000    0.0000 C   0  0  0  0  0  0  0  0  0  0  0  0
    0.0000    0.0000    0.0000 C   0  0  0  0  0  0  0  0  0  0  0  0
    0.0000    0.0000    0.0000 O   0  0  0  0  0  0  0  0  0  0  0  0
    0.0000    0.0000    0.0000 O   0  0  0  0  0  0  0  0  0  0  0  0
    0.0000    0.0000    0.0000 C   0  0  0  0  0  0  0  0  0  0  0  0
    0.0000    0.0000    0.0000 C   0  0  0  0  0  0  0  0  0  0  0  0
    0.0000    0.0000    0.0000 C   0  0  0  0  0  0  0  0  0  0  0  0
    0.0000    0.0000    0.0000 S   0  0  0  0  0  0  0  0  0  0  0  0
    0.0000    0.0000    0.0000 O   0  0  0  0  0  0  0  0  0  0  0  0
    0.0000    0.0000    0.0000 O   0  0  0  0  0  0  0  0  0  0  0  0
    0.0000    0.0000    0.0000 C   0  0  0  0  0  0  0  0  0  0  0  0
    0.0000    0.0000    0.0000 C   0  0  0  0  0  0  0  0  0  0  0  0
    0.0000    0.0000    0.0000 C   0  0  0  0  0  0  0  0  0  0  0  0
    0.0000    0.0000    0.0000 C   0  0  0  0  0  0  0  0  0  0  0  0
    0.0000    0.0000    0.0000 S   0  0  0  0  0  0  0  0  0  0  0  0
    0.0000    0.0000    0.0000 S   0  0  0  0  0  0  0  0  0  0  0  0
    0.0000    0.0000    0.0000 O   0  0  0  0  0  0  0  0  0  0  0  0
    0.0000    0.0000    0.0000 O   0  0  0  0  0  0  0  0  0  0  0  0
    0.0000    0.0000    0.0000 N   0  0  0  0  0  0  0  0  0  0  0  0
  1  2  1  0
  2  3  1  0
  3  4  1  0
  4  5  2  0
  4  6  1  0
  6  7  1  0
  7  8  1  0
  8  9  1  0
  9 10  1  0
 10 11  2  0
 10 12  2  0
 10 13  1  0
 13 14  2  0
 14 15  1  0
 15 16  2  0
 16 17  1  0
 16 18  1  0
 18 19  2  0
 18 20  2  0
 18 21  1  0
 17 13  1  0
M  END
>  <pIC50>  (117) 
8.35

>  <ChEMBL_ID>  (117) 
CHEMBL320808

>  <document_journal>  (117) 
J. Med. Chem.

>  <bao_endpoint>  (117) 
BAO_0000190

>  <potential_duplicate>  (117) 
False

>  <uo_units>  (117) 
UO_0000065

>  <canonical_smiles>  (117) 
COCC(=O)OCCCS(=O)(=O)c1ccc(s1)S(=O)(=O)N

>  <parent_molecule_chembl_id>  (117) 
CHEMBL320808

>  <assay_type>  (117) 
F

>  <src_id>  (117) 
1

>  <ligand_efficiency>  (117) 
None

>  <standard_flag>  (117) 
True

>  <molecule_chembl_id>  (117) 
CHEMBL320808

>  <target_organism>  (117) 
Homo sapiens

>  <standard_units>  (117) 
nM

>  <record_id>  (117) 
197029

>  <document_chembl_id>  (117) 
CHEMBL1125912

>  <bao_format>  (117) 
BAO_0000019

>  <data_validity_description>  (117) 
None

>  <activity_id>  (117) 
193573

>  <standard_type>  (117) 
IC50

>  <target_chembl_id>  (117) 
CHEMBL205

>  <data_validity_comment>  (117) 
None

>  <published_value>  (117) 
4.5

>  <document_year>  (117) 
1991

>  <target_pref_name>  (117) 
Carbonic anhydrase II

>  <assay_chembl_id>  (117) 
CHEMBL694391

>  <standard_relation>  (117) 
=

>  <assay_description>  (117) 
Inhibitory activity against human carbonic anhydrase II using pH stat assay

>  <published_relation>  (117) 
=

>  <standard_value>  (117) 
4.5

>  <qudt_units>  (117) 
http://www.openphacts.org/units/Nanomolar

>  <target_tax_id>  (117) 
9606

>  <bao_label>  (117) 
assay format

>  <published_units>  (117) 
nM

>  <pchembl_value>  (117) 
8.35

>  <published_type>  (117) 
I50

>  <activity_comment>  (117) 
None

$$$$

     RDKit          

 14 15  0  0  0  0  0  0  0  0999 V2000
    0.0000    0.0000    0.0000 N   0  0  0  0  0  0  0  0  0  0  0  0
    0.0000    0.0000    0.0000 C   0  0  0  0  0  0  0  0  0  0  0  0
    0.0000    0.0000    0.0000 C   0  0  0  0  0  0  0  0  0  0  0  0
    0.0000    0.0000    0.0000 C   0  0  0  0  0  0  0  0  0  0  0  0
    0.0000    0.0000    0.0000 C   0  0  0  0  0  0  0  0  0  0  0  0
    0.0000    0.0000    0.0000 C   0  0  0  0  0  0  0  0  0  0  0  0
    0.0000    0.0000    0.0000 C   0  0  0  0  0  0  0  0  0  0  0  0
    0.0000    0.0000    0.0000 O   0  0  0  0  0  0  0  0  0  0  0  0
    0.0000    0.0000    0.0000 C   0  0  0  0  0  0  0  0  0  0  0  0
    0.0000    0.0000    0.0000 C   0  0  0  0  0  0  0  0  0  0  0  0
    0.0000    0.0000    0.0000 S   0  0  0  0  0  0  0  0  0  0  0  0
    0.0000    0.0000    0.0000 O   0  0  0  0  0  0  0  0  0  0  0  0
    0.0000    0.0000    0.0000 O   0  0  0  0  0  0  0  0  0  0  0  0
    0.0000    0.0000    0.0000 N   0  0  0  0  0  0  0  0  0  0  0  0
  1  2  1  0
  2  3  2  0
  3  4  1  0
  4  5  2  0
  5  6  1  0
  6  7  2  0
  7  8  1  0
  8  9  1  0
  9 10  2  0
  7 11  1  0
 11 12  2  0
 11 13  2  0
 11 14  1  0
 10  2  1  0
  9  5  1  0
M  END
>  <pIC50>  (118) 
7.6

>  <ChEMBL_ID>  (118) 
CHEMBL355157

>  <document_journal>  (118) 
J. Med. Chem.

>  <bao_endpoint>  (118) 
BAO_0000190

>  <potential_duplicate>  (118) 
False

>  <uo_units>  (118) 
UO_0000065

>  <canonical_smiles>  (118) 
Nc1ccc2cc(oc2c1)S(=O)(=O)N

>  <parent_molecule_chembl_id>  (118) 
CHEMBL355157

>  <assay_type>  (118) 
B

>  <src_id>  (118) 
1

>  <ligand_efficiency>  (118) 
{u'le': u'0.74', u'bei': u'35.82', u'sei': u'7.06', u'lle': u'7.38'}

>  <standard_flag>  (118) 
True

>  <molecule_chembl_id>  (118) 
CHEMBL355157

>  <target_organism>  (118) 
Homo sapiens

>  <standard_units>  (118) 
nM

>  <record_id>  (118) 
322568

>  <document_chembl_id>  (118) 
CHEMBL1124833

>  <bao_format>  (118) 
BAO_0000357

>  <data_validity_description>  (118) 
None

>  <activity_id>  (118) 
194698

>  <standard_type>  (118) 
IC50

>  <target_chembl_id>  (118) 
CHEMBL205

>  <data_validity_comment>  (118) 
None

>  <published_value>  (118) 
25

>  <document_year>  (118) 
1990

>  <target_pref_name>  (118) 
Carbonic anhydrase II

>  <assay_chembl_id>  (118) 
CHEMBL656576

>  <standard_relation>  (118) 
=

>  <assay_description>  (118) 
In vitro inhibition of human carbonic anhydrase II (0.1 nM).

>  <published_relation>  (118) 
=

>  <standard_value>  (118) 
25

>  <qudt_units>  (118) 
http://www.openphacts.org/units/Nanomolar

>  <target_tax_id>  (118) 
9606

>  <bao_label>  (118) 
single protein format

>  <published_units>  (118) 
nM

>  <pchembl_value>  (118) 
7.6

>  <published_type>  (118) 
I50

>  <activity_comment>  (118) 
None

$$$$

     RDKit          

 19 19  0  0  0  0  0  0  0  0999 V2000
    0.0000    0.0000    0.0000 N   0  0  0  0  0  0  0  0  0  0  0  0
    0.0000    0.0000    0.0000 S   0  0  0  0  0  0  0  0  0  0  0  0
    0.0000    0.0000    0.0000 O   0  0  0  0  0  0  0  0  0  0  0  0
    0.0000    0.0000    0.0000 O   0  0  0  0  0  0  0  0  0  0  0  0
    0.0000    0.0000    0.0000 C   0  0  0  0  0  0  0  0  0  0  0  0
    0.0000    0.0000    0.0000 C   0  0  0  0  0  0  0  0  0  0  0  0
    0.0000    0.0000    0.0000 C   0  0  0  0  0  0  0  0  0  0  0  0
    0.0000    0.0000    0.0000 C   0  0  0  0  0  0  0  0  0  0  0  0
    0.0000    0.0000    0.0000 C   0  0  0  0  0  0  0  0  0  0  0  0
    0.0000    0.0000    0.0000 F   0  0  0  0  0  0  0  0  0  0  0  0
    0.0000    0.0000    0.0000 C   0  0  0  0  0  0  0  0  0  0  0  0
    0.0000    0.0000    0.0000 S   0  0  0  0  0  0  0  0  0  0  0  0
    0.0000    0.0000    0.0000 O   0  0  0  0  0  0  0  0  0  0  0  0
    0.0000    0.0000    0.0000 O   0  0  0  0  0  0  0  0  0  0  0  0
    0.0000    0.0000    0.0000 C   0  0  0  0  0  0  0  0  0  0  0  0
    0.0000    0.0000    0.0000 C   0  0  0  0  0  0  0  0  0  0  0  0
    0.0000    0.0000    0.0000 C   0  0  0  0  0  0  0  0  0  0  0  0
    0.0000    0.0000    0.0000 C   0  0  0  0  0  0  0  0  0  0  0  0
    0.0000    0.0000    0.0000 O   0  0  0  0  0  0  0  0  0  0  0  0
  1  2  1  0
  2  3  2  0
  2  4  2  0
  2  5  1  0
  5  6  2  0
  6  7  1  0
  7  8  2  0
  8  9  1  0
  9 10  1  0
  9 11  2  0
  8 12  1  0
 12 13  2  0
 12 14  2  0
 12 15  1  0
 15 16  1  0
 16 17  1  0
 17 18  1  0
 18 19  1  0
 11  5  1  0
M  END
>  <pIC50>  (119) 
8.4

>  <ChEMBL_ID>  (119) 
CHEMBL319397

>  <document_journal>  (119) 
J. Med. Chem.

>  <bao_endpoint>  (119) 
BAO_0000190

>  <potential_duplicate>  (119) 
False

>  <uo_units>  (119) 
UO_0000065

>  <canonical_smiles>  (119) 
NS(=O)(=O)c1ccc(c(F)c1)S(=O)(=O)CCCCO

>  <parent_molecule_chembl_id>  (119) 
CHEMBL319397

>  <assay_type>  (119) 
F

>  <src_id>  (119) 
1

>  <ligand_efficiency>  (119) 
None

>  <standard_flag>  (119) 
True

>  <molecule_chembl_id>  (119) 
CHEMBL319397

>  <target_organism>  (119) 
Homo sapiens

>  <standard_units>  (119) 
nM

>  <record_id>  (119) 
197001

>  <document_chembl_id>  (119) 
CHEMBL1125912

>  <bao_format>  (119) 
BAO_0000019

>  <data_validity_description>  (119) 
None

>  <activity_id>  (119) 
194745

>  <standard_type>  (119) 
IC50

>  <target_chembl_id>  (119) 
CHEMBL205

>  <data_validity_comment>  (119) 
None

>  <published_value>  (119) 
4

>  <document_year>  (119) 
1991

>  <target_pref_name>  (119) 
Carbonic anhydrase II

>  <assay_chembl_id>  (119) 
CHEMBL694391

>  <standard_relation>  (119) 
=

>  <assay_description>  (119) 
Inhibitory activity against human carbonic anhydrase II using pH stat assay

>  <published_relation>  (119) 
=

>  <standard_value>  (119) 
4

>  <qudt_units>  (119) 
http://www.openphacts.org/units/Nanomolar

>  <target_tax_id>  (119) 
9606

>  <bao_label>  (119) 
assay format

>  <published_units>  (119) 
nM

>  <pchembl_value>  (119) 
8.4

>  <published_type>  (119) 
I50

>  <activity_comment>  (119) 
None

$$$$

     RDKit          

 17 18  0  0  0  0  0  0  0  0999 V2000
    0.0000    0.0000    0.0000 C   0  0  0  0  0  0  0  0  0  0  0  0
    0.0000    0.0000    0.0000 C   0  0  0  0  0  0  0  0  0  0  0  0
    0.0000    0.0000    0.0000 O   0  0  0  0  0  0  0  0  0  0  0  0
    0.0000    0.0000    0.0000 O   0  0  0  0  0  0  0  0  0  0  0  0
    0.0000    0.0000    0.0000 C   0  0  0  0  0  0  0  0  0  0  0  0
    0.0000    0.0000    0.0000 C   0  0  0  0  0  0  0  0  0  0  0  0
    0.0000    0.0000    0.0000 C   0  0  0  0  0  0  0  0  0  0  0  0
    0.0000    0.0000    0.0000 C   0  0  0  0  0  0  0  0  0  0  0  0
    0.0000    0.0000    0.0000 C   0  0  0  0  0  0  0  0  0  0  0  0
    0.0000    0.0000    0.0000 C   0  0  0  0  0  0  0  0  0  0  0  0
    0.0000    0.0000    0.0000 O   0  0  0  0  0  0  0  0  0  0  0  0
    0.0000    0.0000    0.0000 C   0  0  0  0  0  0  0  0  0  0  0  0
    0.0000    0.0000    0.0000 C   0  0  0  0  0  0  0  0  0  0  0  0
    0.0000    0.0000    0.0000 S   0  0  0  0  0  0  0  0  0  0  0  0
    0.0000    0.0000    0.0000 O   0  0  0  0  0  0  0  0  0  0  0  0
    0.0000    0.0000    0.0000 O   0  0  0  0  0  0  0  0  0  0  0  0
    0.0000    0.0000    0.0000 N   0  0  0  0  0  0  0  0  0  0  0  0
  1  2  1  0
  2  3  2  0
  2  4  1  0
  4  5  1  0
  5  6  2  0
  6  7  1  0
  7  8  2  0
  8  9  1  0
  9 10  2  0
 10 11  1  0
 11 12  1  0
 12 13  2  0
 10 14  1  0
 14 15  2  0
 14 16  2  0
 14 17  1  0
 13  5  1  0
 12  8  1  0
M  END
>  <pIC50>  (120) 
8.26

>  <ChEMBL_ID>  (120) 
CHEMBL424188

>  <document_journal>  (120) 
J. Med. Chem.

>  <bao_endpoint>  (120) 
BAO_0000190

>  <potential_duplicate>  (120) 
False

>  <uo_units>  (120) 
UO_0000065

>  <canonical_smiles>  (120) 
CC(=O)Oc1ccc2cc(oc2c1)S(=O)(=O)N

>  <parent_molecule_chembl_id>  (120) 
CHEMBL424188

>  <assay_type>  (120) 
B

>  <src_id>  (120) 
1

>  <ligand_efficiency>  (120) 
{u'le': u'0.66', u'bei': u'32.36', u'sei': u'7.65', u'lle': u'7.53'}

>  <standard_flag>  (120) 
True

>  <molecule_chembl_id>  (120) 
CHEMBL424188

>  <target_organism>  (120) 
Homo sapiens

>  <standard_units>  (120) 
nM

>  <record_id>  (120) 
322583

>  <document_chembl_id>  (120) 
CHEMBL1124833

>  <bao_format>  (120) 
BAO_0000357

>  <data_validity_description>  (120) 
None

>  <activity_id>  (120) 
195870

>  <standard_type>  (120) 
IC50

>  <target_chembl_id>  (120) 
CHEMBL205

>  <data_validity_comment>  (120) 
None

>  <published_value>  (120) 
5.5

>  <document_year>  (120) 
1990

>  <target_pref_name>  (120) 
Carbonic anhydrase II

>  <assay_chembl_id>  (120) 
CHEMBL656576

>  <standard_relation>  (120) 
=

>  <assay_description>  (120) 
In vitro inhibition of human carbonic anhydrase II (0.1 nM).

>  <published_relation>  (120) 
=

>  <standard_value>  (120) 
5.5

>  <qudt_units>  (120) 
http://www.openphacts.org/units/Nanomolar

>  <target_tax_id>  (120) 
9606

>  <bao_label>  (120) 
single protein format

>  <published_units>  (120) 
nM

>  <pchembl_value>  (120) 
8.26

>  <published_type>  (120) 
I50

>  <activity_comment>  (120) 
None

$$$$

     RDKit          

 19 19  0  0  0  0  0  0  0  0999 V2000
    0.0000    0.0000    0.0000 C   0  0  0  0  0  0  0  0  0  0  0  0
    0.0000    0.0000    0.0000 O   0  0  0  0  0  0  0  0  0  0  0  0
    0.0000    0.0000    0.0000 C   0  0  0  0  0  0  0  0  0  0  0  0
    0.0000    0.0000    0.0000 O   0  0  0  0  0  0  0  0  0  0  0  0
    0.0000    0.0000    0.0000 C   0  0  0  0  0  0  0  0  0  0  0  0
    0.0000    0.0000    0.0000 C   0  0  0  0  0  0  0  0  0  0  0  0
    0.0000    0.0000    0.0000 C   0  0  0  0  0  0  0  0  0  0  0  0
    0.0000    0.0000    0.0000 C   0  0  0  0  0  0  0  0  0  0  0  0
    0.0000    0.0000    0.0000 C   0  0  0  0  0  0  0  0  0  0  0  0
    0.0000    0.0000    0.0000 C   0  0  0  0  0  0  0  0  0  0  0  0
    0.0000    0.0000    0.0000 S   0  0  0  0  0  0  0  0  0  0  0  0
    0.0000    0.0000    0.0000 C   0  0  0  0  0  0  0  0  0  0  0  0
    0.0000    0.0000    0.0000 C   0  0  0  0  0  0  0  0  0  0  0  0
    0.0000    0.0000    0.0000 C   0  0  0  0  0  0  0  0  0  0  0  0
    0.0000    0.0000    0.0000 O   0  0  0  0  0  0  0  0  0  0  0  0
    0.0000    0.0000    0.0000 S   0  0  0  0  0  0  0  0  0  0  0  0
    0.0000    0.0000    0.0000 O   0  0  0  0  0  0  0  0  0  0  0  0
    0.0000    0.0000    0.0000 O   0  0  0  0  0  0  0  0  0  0  0  0
    0.0000    0.0000    0.0000 N   0  0  0  0  0  0  0  0  0  0  0  0
  1  2  1  0
  2  3  1  0
  3  4  2  0
  3  5  1  0
  5  6  2  0
  6  7  1  0
  7  8  2  0
  8  9  1  0
  9 10  2  0
 10 11  1  0
 11 12  1  0
 12 13  1  0
 13 14  1  0
 14 15  1  0
  7 16  1  0
 16 17  2  0
 16 18  2  0
 16 19  1  0
 10  5  1  0
M  END
>  <pIC50>  (121) 
6.16

>  <ChEMBL_ID>  (121) 
CHEMBL319437

>  <document_journal>  (121) 
J. Med. Chem.

>  <bao_endpoint>  (121) 
BAO_0000190

>  <potential_duplicate>  (121) 
False

>  <uo_units>  (121) 
UO_0000065

>  <canonical_smiles>  (121) 
COC(=O)c1cc(ccc1SCCCO)S(=O)(=O)N

>  <parent_molecule_chembl_id>  (121) 
CHEMBL319437

>  <assay_type>  (121) 
F

>  <src_id>  (121) 
1

>  <ligand_efficiency>  (121) 
None

>  <standard_flag>  (121) 
True

>  <molecule_chembl_id>  (121) 
CHEMBL319437

>  <target_organism>  (121) 
Homo sapiens

>  <standard_units>  (121) 
nM

>  <record_id>  (121) 
197011

>  <document_chembl_id>  (121) 
CHEMBL1125912

>  <bao_format>  (121) 
BAO_0000019

>  <data_validity_description>  (121) 
None

>  <activity_id>  (121) 
197052

>  <standard_type>  (121) 
IC50

>  <target_chembl_id>  (121) 
CHEMBL205

>  <data_validity_comment>  (121) 
None

>  <published_value>  (121) 
700

>  <document_year>  (121) 
1991

>  <target_pref_name>  (121) 
Carbonic anhydrase II

>  <assay_chembl_id>  (121) 
CHEMBL694391

>  <standard_relation>  (121) 
=

>  <assay_description>  (121) 
Inhibitory activity against human carbonic anhydrase II using pH stat assay

>  <published_relation>  (121) 
=

>  <standard_value>  (121) 
700

>  <qudt_units>  (121) 
http://www.openphacts.org/units/Nanomolar

>  <target_tax_id>  (121) 
9606

>  <bao_label>  (121) 
assay format

>  <published_units>  (121) 
nM

>  <pchembl_value>  (121) 
6.16

>  <published_type>  (121) 
I50

>  <activity_comment>  (121) 
None

$$$$

     RDKit          

 19 19  0  0  0  0  0  0  0  0999 V2000
    0.0000    0.0000    0.0000 C   0  0  0  0  0  0  0  0  0  0  0  0
    0.0000    0.0000    0.0000 C   0  0  0  0  0  0  0  0  0  0  0  0
    0.0000    0.0000    0.0000 C   0  0  0  0  0  0  0  0  0  0  0  0
    0.0000    0.0000    0.0000 O   0  0  0  0  0  0  0  0  0  0  0  0
    0.0000    0.0000    0.0000 C   0  0  0  0  0  0  0  0  0  0  0  0
    0.0000    0.0000    0.0000 C   0  0  0  0  0  0  0  0  0  0  0  0
    0.0000    0.0000    0.0000 S   0  0  0  0  0  0  0  0  0  0  0  0
    0.0000    0.0000    0.0000 O   0  0  0  0  0  0  0  0  0  0  0  0
    0.0000    0.0000    0.0000 O   0  0  0  0  0  0  0  0  0  0  0  0
    0.0000    0.0000    0.0000 C   0  0  0  0  0  0  0  0  0  0  0  0
    0.0000    0.0000    0.0000 C   0  0  0  0  0  0  0  0  0  0  0  0
    0.0000    0.0000    0.0000 C   0  0  0  0  0  0  0  0  0  0  0  0
    0.0000    0.0000    0.0000 C   0  0  0  0  0  0  0  0  0  0  0  0
    0.0000    0.0000    0.0000 C   0  0  0  0  0  0  0  0  0  0  0  0
    0.0000    0.0000    0.0000 C   0  0  0  0  0  0  0  0  0  0  0  0
    0.0000    0.0000    0.0000 S   0  0  0  0  0  0  0  0  0  0  0  0
    0.0000    0.0000    0.0000 O   0  0  0  0  0  0  0  0  0  0  0  0
    0.0000    0.0000    0.0000 O   0  0  0  0  0  0  0  0  0  0  0  0
    0.0000    0.0000    0.0000 N   0  0  0  0  0  0  0  0  0  0  0  0
  1  2  1  0
  2  3  1  0
  2  4  1  0
  2  5  1  0
  5  6  1  0
  6  7  1  0
  7  8  2  0
  7  9  2  0
  7 10  1  0
 10 11  2  0
 11 12  1  0
 12 13  2  0
 13 14  1  0
 14 15  2  0
 13 16  1  0
 16 17  2  0
 16 18  2  0
 16 19  1  0
 15 10  1  0
M  END
>  <pIC50>  (122) 
7.6

>  <ChEMBL_ID>  (122) 
CHEMBL319238

>  <document_journal>  (122) 
J. Med. Chem.

>  <bao_endpoint>  (122) 
BAO_0000190

>  <potential_duplicate>  (122) 
False

>  <uo_units>  (122) 
UO_0000065

>  <canonical_smiles>  (122) 
CC(C)(O)CCS(=O)(=O)c1ccc(cc1)S(=O)(=O)N

>  <parent_molecule_chembl_id>  (122) 
CHEMBL319238

>  <assay_type>  (122) 
F

>  <src_id>  (122) 
1

>  <ligand_efficiency>  (122) 
None

>  <standard_flag>  (122) 
True

>  <molecule_chembl_id>  (122) 
CHEMBL319238

>  <target_organism>  (122) 
Homo sapiens

>  <standard_units>  (122) 
nM

>  <record_id>  (122) 
196994

>  <document_chembl_id>  (122) 
CHEMBL1125912

>  <bao_format>  (122) 
BAO_0000019

>  <data_validity_description>  (122) 
None

>  <activity_id>  (122) 
198044

>  <standard_type>  (122) 
IC50

>  <target_chembl_id>  (122) 
CHEMBL205

>  <data_validity_comment>  (122) 
None

>  <published_value>  (122) 
25

>  <document_year>  (122) 
1991

>  <target_pref_name>  (122) 
Carbonic anhydrase II

>  <assay_chembl_id>  (122) 
CHEMBL694391

>  <standard_relation>  (122) 
=

>  <assay_description>  (122) 
Inhibitory activity against human carbonic anhydrase II using pH stat assay

>  <published_relation>  (122) 
=

>  <standard_value>  (122) 
25

>  <qudt_units>  (122) 
http://www.openphacts.org/units/Nanomolar

>  <target_tax_id>  (122) 
9606

>  <bao_label>  (122) 
assay format

>  <published_units>  (122) 
nM

>  <pchembl_value>  (122) 
7.6

>  <published_type>  (122) 
I50

>  <activity_comment>  (122) 
None

$$$$

     RDKit          

 21 21  0  0  0  0  0  0  0  0999 V2000
    0.0000    0.0000    0.0000 C   0  0  0  0  0  0  0  0  0  0  0  0
    0.0000    0.0000    0.0000 O   0  0  0  0  0  0  0  0  0  0  0  0
    0.0000    0.0000    0.0000 C   0  0  0  0  0  0  0  0  0  0  0  0
    0.0000    0.0000    0.0000 O   0  0  0  0  0  0  0  0  0  0  0  0
    0.0000    0.0000    0.0000 C   0  0  0  0  0  0  0  0  0  0  0  0
    0.0000    0.0000    0.0000 C   0  0  0  0  0  0  0  0  0  0  0  0
    0.0000    0.0000    0.0000 C   0  0  0  0  0  0  0  0  0  0  0  0
    0.0000    0.0000    0.0000 C   0  0  0  0  0  0  0  0  0  0  0  0
    0.0000    0.0000    0.0000 C   0  0  0  0  0  0  0  0  0  0  0  0
    0.0000    0.0000    0.0000 C   0  0  0  0  0  0  0  0  0  0  0  0
    0.0000    0.0000    0.0000 S   0  0  0  0  0  0  0  0  0  0  0  0
    0.0000    0.0000    0.0000 O   0  0  0  0  0  0  0  0  0  0  0  0
    0.0000    0.0000    0.0000 O   0  0  0  0  0  0  0  0  0  0  0  0
    0.0000    0.0000    0.0000 C   0  0  0  0  0  0  0  0  0  0  0  0
    0.0000    0.0000    0.0000 C   0  0  0  0  0  0  0  0  0  0  0  0
    0.0000    0.0000    0.0000 C   0  0  0  0  0  0  0  0  0  0  0  0
    0.0000    0.0000    0.0000 O   0  0  0  0  0  0  0  0  0  0  0  0
    0.0000    0.0000    0.0000 S   0  0  0  0  0  0  0  0  0  0  0  0
    0.0000    0.0000    0.0000 O   0  0  0  0  0  0  0  0  0  0  0  0
    0.0000    0.0000    0.0000 O   0  0  0  0  0  0  0  0  0  0  0  0
    0.0000    0.0000    0.0000 N   0  0  0  0  0  0  0  0  0  0  0  0
  1  2  1  0
  2  3  1  0
  3  4  2  0
  3  5  1  0
  5  6  2  0
  6  7  1  0
  7  8  2  0
  8  9  1  0
  9 10  2  0
 10 11  1  0
 11 12  2  0
 11 13  2  0
 11 14  1  0
 14 15  1  0
 15 16  1  0
 16 17  1  0
  7 18  1  0
 18 19  2  0
 18 20  2  0
 18 21  1  0
 10  5  1  0
M  END
>  <pIC50>  (123) 
7.7

>  <ChEMBL_ID>  (123) 
CHEMBL321553

>  <document_journal>  (123) 
J. Med. Chem.

>  <bao_endpoint>  (123) 
BAO_0000190

>  <potential_duplicate>  (123) 
False

>  <uo_units>  (123) 
UO_0000065

>  <canonical_smiles>  (123) 
COC(=O)c1cc(ccc1S(=O)(=O)CCCO)S(=O)(=O)N

>  <parent_molecule_chembl_id>  (123) 
CHEMBL321553

>  <assay_type>  (123) 
F

>  <src_id>  (123) 
1

>  <ligand_efficiency>  (123) 
None

>  <standard_flag>  (123) 
True

>  <molecule_chembl_id>  (123) 
CHEMBL321553

>  <target_organism>  (123) 
Homo sapiens

>  <standard_units>  (123) 
nM

>  <record_id>  (123) 
197010

>  <document_chembl_id>  (123) 
CHEMBL1125912

>  <bao_format>  (123) 
BAO_0000019

>  <data_validity_description>  (123) 
None

>  <activity_id>  (123) 
198048

>  <standard_type>  (123) 
IC50

>  <target_chembl_id>  (123) 
CHEMBL205

>  <data_validity_comment>  (123) 
None

>  <published_value>  (123) 
20

>  <document_year>  (123) 
1991

>  <target_pref_name>  (123) 
Carbonic anhydrase II

>  <assay_chembl_id>  (123) 
CHEMBL694391

>  <standard_relation>  (123) 
=

>  <assay_description>  (123) 
Inhibitory activity against human carbonic anhydrase II using pH stat assay

>  <published_relation>  (123) 
=

>  <standard_value>  (123) 
20

>  <qudt_units>  (123) 
http://www.openphacts.org/units/Nanomolar

>  <target_tax_id>  (123) 
9606

>  <bao_label>  (123) 
assay format

>  <published_units>  (123) 
nM

>  <pchembl_value>  (123) 
7.7

>  <published_type>  (123) 
I50

>  <activity_comment>  (123) 
None

$$$$

     RDKit          

 15 15  0  0  0  0  0  0  0  0999 V2000
    0.0000    0.0000    0.0000 N   0  0  0  0  0  0  0  0  0  0  0  0
    0.0000    0.0000    0.0000 S   0  0  0  0  0  0  0  0  0  0  0  0
    0.0000    0.0000    0.0000 O   0  0  0  0  0  0  0  0  0  0  0  0
    0.0000    0.0000    0.0000 O   0  0  0  0  0  0  0  0  0  0  0  0
    0.0000    0.0000    0.0000 C   0  0  0  0  0  0  0  0  0  0  0  0
    0.0000    0.0000    0.0000 C   0  0  0  0  0  0  0  0  0  0  0  0
    0.0000    0.0000    0.0000 C   0  0  0  0  0  0  0  0  0  0  0  0
    0.0000    0.0000    0.0000 C   0  0  0  0  0  0  0  0  0  0  0  0
    0.0000    0.0000    0.0000 C   0  0  0  0  0  0  0  0  0  0  0  0
    0.0000    0.0000    0.0000 C   0  0  0  0  0  0  0  0  0  0  0  0
    0.0000    0.0000    0.0000 C   0  0  0  0  0  0  0  0  0  0  0  0
    0.0000    0.0000    0.0000 O   0  0  0  0  0  0  0  0  0  0  0  0
    0.0000    0.0000    0.0000 C   0  0  0  0  0  0  0  0  0  0  0  0
    0.0000    0.0000    0.0000 F   0  0  0  0  0  0  0  0  0  0  0  0
    0.0000    0.0000    0.0000 C   0  0  0  0  0  0  0  0  0  0  0  0
  1  2  1  0
  2  3  2  0
  2  4  2  0
  2  5  1  0
  5  6  2  0
  6  7  1  0
  7  8  2  0
  8  9  1  0
  9 10  1  0
 10 11  1  0
 11 12  1  0
  8 13  1  0
 13 14  1  0
 13 15  2  0
 15  5  1  0
M  END
>  <pIC50>  (124) 
7.7

>  <ChEMBL_ID>  (124) 
CHEMBL105688

>  <document_journal>  (124) 
J. Med. Chem.

>  <bao_endpoint>  (124) 
BAO_0000190

>  <potential_duplicate>  (124) 
False

>  <uo_units>  (124) 
UO_0000065

>  <canonical_smiles>  (124) 
NS(=O)(=O)c1ccc(CCCO)c(F)c1

>  <parent_molecule_chembl_id>  (124) 
CHEMBL105688

>  <assay_type>  (124) 
F

>  <src_id>  (124) 
1

>  <ligand_efficiency>  (124) 
None

>  <standard_flag>  (124) 
True

>  <molecule_chembl_id>  (124) 
CHEMBL105688

>  <target_organism>  (124) 
Homo sapiens

>  <standard_units>  (124) 
nM

>  <record_id>  (124) 
197019

>  <document_chembl_id>  (124) 
CHEMBL1125912

>  <bao_format>  (124) 
BAO_0000019

>  <data_validity_description>  (124) 
None

>  <activity_id>  (124) 
198051

>  <standard_type>  (124) 
IC50

>  <target_chembl_id>  (124) 
CHEMBL205

>  <data_validity_comment>  (124) 
None

>  <published_value>  (124) 
20

>  <document_year>  (124) 
1991

>  <target_pref_name>  (124) 
Carbonic anhydrase II

>  <assay_chembl_id>  (124) 
CHEMBL694391

>  <standard_relation>  (124) 
=

>  <assay_description>  (124) 
Inhibitory activity against human carbonic anhydrase II using pH stat assay

>  <published_relation>  (124) 
=

>  <standard_value>  (124) 
20

>  <qudt_units>  (124) 
http://www.openphacts.org/units/Nanomolar

>  <target_tax_id>  (124) 
9606

>  <bao_label>  (124) 
assay format

>  <published_units>  (124) 
nM

>  <pchembl_value>  (124) 
7.7

>  <published_type>  (124) 
I50

>  <activity_comment>  (124) 
None

$$$$

     RDKit          

 16 16  0  0  0  0  0  0  0  0999 V2000
    0.0000    0.0000    0.0000 N   0  0  0  0  0  0  0  0  0  0  0  0
    0.0000    0.0000    0.0000 S   0  0  0  0  0  0  0  0  0  0  0  0
    0.0000    0.0000    0.0000 O   0  0  0  0  0  0  0  0  0  0  0  0
    0.0000    0.0000    0.0000 O   0  0  0  0  0  0  0  0  0  0  0  0
    0.0000    0.0000    0.0000 C   0  0  0  0  0  0  0  0  0  0  0  0
    0.0000    0.0000    0.0000 C   0  0  0  0  0  0  0  0  0  0  0  0
    0.0000    0.0000    0.0000 C   0  0  0  0  0  0  0  0  0  0  0  0
    0.0000    0.0000    0.0000 C   0  0  0  0  0  0  0  0  0  0  0  0
    0.0000    0.0000    0.0000 S   0  0  0  0  0  0  0  0  0  0  0  0
    0.0000    0.0000    0.0000 C   0  0  0  0  0  0  0  0  0  0  0  0
    0.0000    0.0000    0.0000 C   0  0  0  0  0  0  0  0  0  0  0  0
    0.0000    0.0000    0.0000 C   0  0  0  0  0  0  0  0  0  0  0  0
    0.0000    0.0000    0.0000 C   0  0  0  0  0  0  0  0  0  0  0  0
    0.0000    0.0000    0.0000 O   0  0  0  0  0  0  0  0  0  0  0  0
    0.0000    0.0000    0.0000 C   0  0  0  0  0  0  0  0  0  0  0  0
    0.0000    0.0000    0.0000 C   0  0  0  0  0  0  0  0  0  0  0  0
  1  2  1  0
  2  3  2  0
  2  4  2  0
  2  5  1  0
  5  6  2  0
  6  7  1  0
  7  8  2  0
  8  9  1  0
  9 10  1  0
 10 11  1  0
 11 12  1  0
 12 13  1  0
 13 14  1  0
  8 15  1  0
 15 16  2  0
 16  5  1  0
M  END
>  <pIC50>  (125) 
8.05

>  <ChEMBL_ID>  (125) 
CHEMBL107537

>  <document_journal>  (125) 
J. Med. Chem.

>  <bao_endpoint>  (125) 
BAO_0000190

>  <potential_duplicate>  (125) 
False

>  <uo_units>  (125) 
UO_0000065

>  <canonical_smiles>  (125) 
NS(=O)(=O)c1ccc(SCCCCO)cc1

>  <parent_molecule_chembl_id>  (125) 
CHEMBL107537

>  <assay_type>  (125) 
F

>  <src_id>  (125) 
1

>  <ligand_efficiency>  (125) 
None

>  <standard_flag>  (125) 
True

>  <molecule_chembl_id>  (125) 
CHEMBL107537

>  <target_organism>  (125) 
Homo sapiens

>  <standard_units>  (125) 
nM

>  <record_id>  (125) 
197035

>  <document_chembl_id>  (125) 
CHEMBL1125912

>  <bao_format>  (125) 
BAO_0000019

>  <data_validity_description>  (125) 
None

>  <activity_id>  (125) 
199367

>  <standard_type>  (125) 
IC50

>  <target_chembl_id>  (125) 
CHEMBL205

>  <data_validity_comment>  (125) 
None

>  <published_value>  (125) 
9

>  <document_year>  (125) 
1991

>  <target_pref_name>  (125) 
Carbonic anhydrase II

>  <assay_chembl_id>  (125) 
CHEMBL694391

>  <standard_relation>  (125) 
=

>  <assay_description>  (125) 
Inhibitory activity against human carbonic anhydrase II using pH stat assay

>  <published_relation>  (125) 
=

>  <standard_value>  (125) 
9

>  <qudt_units>  (125) 
http://www.openphacts.org/units/Nanomolar

>  <target_tax_id>  (125) 
9606

>  <bao_label>  (125) 
assay format

>  <published_units>  (125) 
nM

>  <pchembl_value>  (125) 
8.05

>  <published_type>  (125) 
I50

>  <activity_comment>  (125) 
None

$$$$

     RDKit          

 18 18  0  0  0  0  0  0  0  0999 V2000
    0.0000    0.0000    0.0000 N   0  0  0  0  0  0  0  0  0  0  0  0
    0.0000    0.0000    0.0000 S   0  0  0  0  0  0  0  0  0  0  0  0
    0.0000    0.0000    0.0000 O   0  0  0  0  0  0  0  0  0  0  0  0
    0.0000    0.0000    0.0000 O   0  0  0  0  0  0  0  0  0  0  0  0
    0.0000    0.0000    0.0000 C   0  0  0  0  0  0  0  0  0  0  0  0
    0.0000    0.0000    0.0000 C   0  0  0  0  0  0  0  0  0  0  0  0
    0.0000    0.0000    0.0000 C   0  0  0  0  0  0  0  0  0  0  0  0
    0.0000    0.0000    0.0000 C   0  0  0  0  0  0  0  0  0  0  0  0
    0.0000    0.0000    0.0000 C   0  0  0  0  0  0  0  0  0  0  0  0
    0.0000    0.0000    0.0000 C   0  0  0  0  0  0  0  0  0  0  0  0
    0.0000    0.0000    0.0000 S   0  0  0  0  0  0  0  0  0  0  0  0
    0.0000    0.0000    0.0000 O   0  0  0  0  0  0  0  0  0  0  0  0
    0.0000    0.0000    0.0000 O   0  0  0  0  0  0  0  0  0  0  0  0
    0.0000    0.0000    0.0000 C   0  0  0  0  0  0  0  0  0  0  0  0
    0.0000    0.0000    0.0000 C   0  0  0  0  0  0  0  0  0  0  0  0
    0.0000    0.0000    0.0000 C   0  0  0  0  0  0  0  0  0  0  0  0
    0.0000    0.0000    0.0000 C   0  0  0  0  0  0  0  0  0  0  0  0
    0.0000    0.0000    0.0000 O   0  0  0  0  0  0  0  0  0  0  0  0
  1  2  1  0
  2  3  2  0
  2  4  2  0
  2  5  1  0
  5  6  2  0
  6  7  1  0
  7  8  2  0
  8  9  1  0
  9 10  2  0
  8 11  1  0
 11 12  2  0
 11 13  2  0
 11 14  1  0
 14 15  1  0
 15 16  1  0
 16 17  1  0
 17 18  1  0
 10  5  1  0
M  END
>  <pIC50>  (126) 
8.16

>  <ChEMBL_ID>  (126) 
CHEMBL105731

>  <document_journal>  (126) 
J. Med. Chem.

>  <bao_endpoint>  (126) 
BAO_0000190

>  <potential_duplicate>  (126) 
False

>  <uo_units>  (126) 
UO_0000065

>  <canonical_smiles>  (126) 
NS(=O)(=O)c1ccc(cc1)S(=O)(=O)CCCCO

>  <parent_molecule_chembl_id>  (126) 
CHEMBL105731

>  <assay_type>  (126) 
F

>  <src_id>  (126) 
1

>  <ligand_efficiency>  (126) 
None

>  <standard_flag>  (126) 
True

>  <molecule_chembl_id>  (126) 
CHEMBL105731

>  <target_organism>  (126) 
Homo sapiens

>  <standard_units>  (126) 
nM

>  <record_id>  (126) 
196995

>  <document_chembl_id>  (126) 
CHEMBL1125912

>  <bao_format>  (126) 
BAO_0000019

>  <data_validity_description>  (126) 
None

>  <activity_id>  (126) 
199371

>  <standard_type>  (126) 
IC50

>  <target_chembl_id>  (126) 
CHEMBL205

>  <data_validity_comment>  (126) 
None

>  <published_value>  (126) 
7

>  <document_year>  (126) 
1991

>  <target_pref_name>  (126) 
Carbonic anhydrase II

>  <assay_chembl_id>  (126) 
CHEMBL694391

>  <standard_relation>  (126) 
=

>  <assay_description>  (126) 
Inhibitory activity against human carbonic anhydrase II using pH stat assay

>  <published_relation>  (126) 
=

>  <standard_value>  (126) 
7

>  <qudt_units>  (126) 
http://www.openphacts.org/units/Nanomolar

>  <target_tax_id>  (126) 
9606

>  <bao_label>  (126) 
assay format

>  <published_units>  (126) 
nM

>  <pchembl_value>  (126) 
8.16

>  <published_type>  (126) 
I50

>  <activity_comment>  (126) 
None

$$$$

     RDKit          

 20 20  0  0  0  0  0  0  0  0999 V2000
    0.0000    0.0000    0.0000 N   0  0  0  0  0  0  0  0  0  0  0  0
    0.0000    0.0000    0.0000 S   0  0  0  0  0  0  0  0  0  0  0  0
    0.0000    0.0000    0.0000 O   0  0  0  0  0  0  0  0  0  0  0  0
    0.0000    0.0000    0.0000 O   0  0  0  0  0  0  0  0  0  0  0  0
    0.0000    0.0000    0.0000 C   0  0  0  0  0  0  0  0  0  0  0  0
    0.0000    0.0000    0.0000 C   0  0  0  0  0  0  0  0  0  0  0  0
    0.0000    0.0000    0.0000 C   0  0  0  0  0  0  0  0  0  0  0  0
    0.0000    0.0000    0.0000 C   0  0  0  0  0  0  0  0  0  0  0  0
    0.0000    0.0000    0.0000 C   0  0  0  0  0  0  0  0  0  0  0  0
    0.0000    0.0000    0.0000 C   0  0  0  0  0  0  0  0  0  0  0  0
    0.0000    0.0000    0.0000 C   0  0  0  0  0  0  0  0  0  0  0  0
    0.0000    0.0000    0.0000 O   0  0  0  0  0  0  0  0  0  0  0  0
    0.0000    0.0000    0.0000 O   0  0  0  0  0  0  0  0  0  0  0  0
    0.0000    0.0000    0.0000 S   0  0  0  0  0  0  0  0  0  0  0  0
    0.0000    0.0000    0.0000 O   0  0  0  0  0  0  0  0  0  0  0  0
    0.0000    0.0000    0.0000 O   0  0  0  0  0  0  0  0  0  0  0  0
    0.0000    0.0000    0.0000 C   0  0  0  0  0  0  0  0  0  0  0  0
    0.0000    0.0000    0.0000 C   0  0  0  0  0  0  0  0  0  0  0  0
    0.0000    0.0000    0.0000 C   0  0  0  0  0  0  0  0  0  0  0  0
    0.0000    0.0000    0.0000 O   0  0  0  0  0  0  0  0  0  0  0  0
  1  2  1  0
  2  3  2  0
  2  4  2  0
  2  5  1  0
  5  6  2  0
  6  7  1  0
  7  8  2  0
  8  9  1  0
  9 10  2  0
  9 11  1  0
 11 12  2  0
 11 13  1  0
  8 14  1  0
 14 15  2  0
 14 16  2  0
 14 17  1  0
 17 18  1  0
 18 19  1  0
 19 20  1  0
 10  5  1  0
M  END
>  <pIC50>  (127) 
6.05

>  <ChEMBL_ID>  (127) 
CHEMBL316814

>  <document_journal>  (127) 
J. Med. Chem.

>  <bao_endpoint>  (127) 
BAO_0000190

>  <potential_duplicate>  (127) 
False

>  <uo_units>  (127) 
UO_0000065

>  <canonical_smiles>  (127) 
NS(=O)(=O)c1ccc(c(c1)C(=O)O)S(=O)(=O)CCCO

>  <parent_molecule_chembl_id>  (127) 
CHEMBL316814

>  <assay_type>  (127) 
F

>  <src_id>  (127) 
1

>  <ligand_efficiency>  (127) 
None

>  <standard_flag>  (127) 
True

>  <molecule_chembl_id>  (127) 
CHEMBL316814

>  <target_organism>  (127) 
Homo sapiens

>  <standard_units>  (127) 
nM

>  <record_id>  (127) 
197012

>  <document_chembl_id>  (127) 
CHEMBL1125912

>  <bao_format>  (127) 
BAO_0000019

>  <data_validity_description>  (127) 
None

>  <activity_id>  (127) 
199375

>  <standard_type>  (127) 
IC50

>  <target_chembl_id>  (127) 
CHEMBL205

>  <data_validity_comment>  (127) 
None

>  <published_value>  (127) 
900

>  <document_year>  (127) 
1991

>  <target_pref_name>  (127) 
Carbonic anhydrase II

>  <assay_chembl_id>  (127) 
CHEMBL694391

>  <standard_relation>  (127) 
=

>  <assay_description>  (127) 
Inhibitory activity against human carbonic anhydrase II using pH stat assay

>  <published_relation>  (127) 
=

>  <standard_value>  (127) 
900

>  <qudt_units>  (127) 
http://www.openphacts.org/units/Nanomolar

>  <target_tax_id>  (127) 
9606

>  <bao_label>  (127) 
assay format

>  <published_units>  (127) 
nM

>  <pchembl_value>  (127) 
6.05

>  <published_type>  (127) 
I50

>  <activity_comment>  (127) 
None

$$$$

     RDKit          

 16 16  0  0  0  0  0  0  0  0999 V2000
    0.0000    0.0000    0.0000 N   0  0  0  0  0  0  0  0  0  0  0  0
    0.0000    0.0000    0.0000 S   0  0  0  0  0  0  0  0  0  0  0  0
    0.0000    0.0000    0.0000 O   0  0  0  0  0  0  0  0  0  0  0  0
    0.0000    0.0000    0.0000 O   0  0  0  0  0  0  0  0  0  0  0  0
    0.0000    0.0000    0.0000 C   0  0  0  0  0  0  0  0  0  0  0  0
    0.0000    0.0000    0.0000 C   0  0  0  0  0  0  0  0  0  0  0  0
    0.0000    0.0000    0.0000 C   0  0  0  0  0  0  0  0  0  0  0  0
    0.0000    0.0000    0.0000 C   0  0  0  0  0  0  0  0  0  0  0  0
    0.0000    0.0000    0.0000 C   0  0  0  0  0  0  0  0  0  0  0  0
    0.0000    0.0000    0.0000 C   0  0  0  0  0  0  0  0  0  0  0  0
    0.0000    0.0000    0.0000 S   0  0  0  0  0  0  0  0  0  0  0  0
    0.0000    0.0000    0.0000 O   0  0  0  0  0  0  0  0  0  0  0  0
    0.0000    0.0000    0.0000 O   0  0  0  0  0  0  0  0  0  0  0  0
    0.0000    0.0000    0.0000 C   0  0  0  0  0  0  0  0  0  0  0  0
    0.0000    0.0000    0.0000 C   0  0  0  0  0  0  0  0  0  0  0  0
    0.0000    0.0000    0.0000 O   0  0  0  0  0  0  0  0  0  0  0  0
  1  2  1  0
  2  3  2  0
  2  4  2  0
  2  5  1  0
  5  6  2  0
  6  7  1  0
  7  8  2  0
  8  9  1  0
  9 10  2  0
  8 11  1  0
 11 12  2  0
 11 13  2  0
 11 14  1  0
 14 15  1  0
 15 16  1  0
 10  5  1  0
M  END
>  <pIC50>  (128) 
7.62

>  <ChEMBL_ID>  (128) 
CHEMBL104459

>  <document_journal>  (128) 
J. Med. Chem.

>  <bao_endpoint>  (128) 
BAO_0000190

>  <potential_duplicate>  (128) 
False

>  <uo_units>  (128) 
UO_0000065

>  <canonical_smiles>  (128) 
NS(=O)(=O)c1ccc(cc1)S(=O)(=O)CCO

>  <parent_molecule_chembl_id>  (128) 
CHEMBL104459

>  <assay_type>  (128) 
F

>  <src_id>  (128) 
1

>  <ligand_efficiency>  (128) 
None

>  <standard_flag>  (128) 
True

>  <molecule_chembl_id>  (128) 
CHEMBL104459

>  <target_organism>  (128) 
Homo sapiens

>  <standard_units>  (128) 
nM

>  <record_id>  (128) 
197038

>  <document_chembl_id>  (128) 
CHEMBL1125912

>  <bao_format>  (128) 
BAO_0000019

>  <data_validity_description>  (128) 
None

>  <activity_id>  (128) 
200613

>  <standard_type>  (128) 
IC50

>  <target_chembl_id>  (128) 
CHEMBL205

>  <data_validity_comment>  (128) 
None

>  <published_value>  (128) 
24

>  <document_year>  (128) 
1991

>  <target_pref_name>  (128) 
Carbonic anhydrase II

>  <assay_chembl_id>  (128) 
CHEMBL694391

>  <standard_relation>  (128) 
=

>  <assay_description>  (128) 
Inhibitory activity against human carbonic anhydrase II using pH stat assay

>  <published_relation>  (128) 
=

>  <standard_value>  (128) 
24

>  <qudt_units>  (128) 
http://www.openphacts.org/units/Nanomolar

>  <target_tax_id>  (128) 
9606

>  <bao_label>  (128) 
assay format

>  <published_units>  (128) 
nM

>  <pchembl_value>  (128) 
7.62

>  <published_type>  (128) 
I50

>  <activity_comment>  (128) 
None

$$$$

     RDKit          

 15 16  0  0  0  0  0  0  0  0999 V2000
    0.0000    0.0000    0.0000 C   0  0  0  0  0  0  0  0  0  0  0  0
    0.0000    0.0000    0.0000 C   0  0  0  0  0  0  0  0  0  0  0  0
    0.0000    0.0000    0.0000 C   0  0  0  0  0  0  0  0  0  0  0  0
    0.0000    0.0000    0.0000 O   0  0  0  0  0  0  0  0  0  0  0  0
    0.0000    0.0000    0.0000 C   0  0  0  0  0  0  0  0  0  0  0  0
    0.0000    0.0000    0.0000 C   0  0  0  0  0  0  0  0  0  0  0  0
    0.0000    0.0000    0.0000 C   0  0  0  0  0  0  0  0  0  0  0  0
    0.0000    0.0000    0.0000 O   0  0  0  0  0  0  0  0  0  0  0  0
    0.0000    0.0000    0.0000 C   0  0  0  0  0  0  0  0  0  0  0  0
    0.0000    0.0000    0.0000 C   0  0  0  0  0  0  0  0  0  0  0  0
    0.0000    0.0000    0.0000 C   0  0  0  0  0  0  0  0  0  0  0  0
    0.0000    0.0000    0.0000 S   0  0  0  0  0  0  0  0  0  0  0  0
    0.0000    0.0000    0.0000 O   0  0  0  0  0  0  0  0  0  0  0  0
    0.0000    0.0000    0.0000 O   0  0  0  0  0  0  0  0  0  0  0  0
    0.0000    0.0000    0.0000 N   0  0  0  0  0  0  0  0  0  0  0  0
  1  2  1  0
  2  3  2  0
  3  4  1  0
  4  5  1  0
  5  6  2  0
  6  7  1  0
  7  8  1  0
  7  9  2  0
  9 10  1  0
 10 11  2  0
  3 12  1  0
 12 13  2  0
 12 14  2  0
 12 15  1  0
 11  2  1  0
 11  5  1  0
M  END
>  <pIC50>  (129) 
6.68

>  <ChEMBL_ID>  (129) 
CHEMBL451547

>  <document_journal>  (129) 
J. Med. Chem.

>  <bao_endpoint>  (129) 
BAO_0000190

>  <potential_duplicate>  (129) 
False

>  <uo_units>  (129) 
UO_0000065

>  <canonical_smiles>  (129) 
Cc1c(oc2cc(O)ccc12)S(=O)(=O)N

>  <parent_molecule_chembl_id>  (129) 
CHEMBL451547

>  <assay_type>  (129) 
B

>  <src_id>  (129) 
1

>  <ligand_efficiency>  (129) 
{u'le': u'0.61', u'bei': u'29.39', u'sei': u'6.55', u'lle': u'5.47'}

>  <standard_flag>  (129) 
True

>  <molecule_chembl_id>  (129) 
CHEMBL451547

>  <target_organism>  (129) 
Homo sapiens

>  <standard_units>  (129) 
nM

>  <record_id>  (129) 
322570

>  <document_chembl_id>  (129) 
CHEMBL1124833

>  <bao_format>  (129) 
BAO_0000357

>  <data_validity_description>  (129) 
None

>  <activity_id>  (129) 
201816

>  <standard_type>  (129) 
IC50

>  <target_chembl_id>  (129) 
CHEMBL205

>  <data_validity_comment>  (129) 
None

>  <published_value>  (129) 
210

>  <document_year>  (129) 
1990

>  <target_pref_name>  (129) 
Carbonic anhydrase II

>  <assay_chembl_id>  (129) 
CHEMBL656576

>  <standard_relation>  (129) 
=

>  <assay_description>  (129) 
In vitro inhibition of human carbonic anhydrase II (0.1 nM).

>  <published_relation>  (129) 
=

>  <standard_value>  (129) 
210

>  <qudt_units>  (129) 
http://www.openphacts.org/units/Nanomolar

>  <target_tax_id>  (129) 
9606

>  <bao_label>  (129) 
single protein format

>  <published_units>  (129) 
nM

>  <pchembl_value>  (129) 
6.68

>  <published_type>  (129) 
I50

>  <activity_comment>  (129) 
None

$$$$

     RDKit          

 17 18  0  0  0  0  0  0  0  0999 V2000
    0.0000    0.0000    0.0000 C   0  0  0  0  0  0  0  0  0  0  0  0
    0.0000    0.0000    0.0000 C   0  0  0  0  0  0  0  0  0  0  0  0
    0.0000    0.0000    0.0000 O   0  0  0  0  0  0  0  0  0  0  0  0
    0.0000    0.0000    0.0000 O   0  0  0  0  0  0  0  0  0  0  0  0
    0.0000    0.0000    0.0000 C   0  0  0  0  0  0  0  0  0  0  0  0
    0.0000    0.0000    0.0000 C   0  0  0  0  0  0  0  0  0  0  0  0
    0.0000    0.0000    0.0000 C   0  0  0  0  0  0  0  0  0  0  0  0
    0.0000    0.0000    0.0000 C   0  0  0  0  0  0  0  0  0  0  0  0
    0.0000    0.0000    0.0000 N   0  0  0  0  0  0  0  0  0  0  0  0
    0.0000    0.0000    0.0000 C   0  0  0  0  0  0  0  0  0  0  0  0
    0.0000    0.0000    0.0000 C   0  0  0  0  0  0  0  0  0  0  0  0
    0.0000    0.0000    0.0000 C   0  0  0  0  0  0  0  0  0  0  0  0
    0.0000    0.0000    0.0000 C   0  0  0  0  0  0  0  0  0  0  0  0
    0.0000    0.0000    0.0000 S   0  0  0  0  0  0  0  0  0  0  0  0
    0.0000    0.0000    0.0000 O   0  0  0  0  0  0  0  0  0  0  0  0
    0.0000    0.0000    0.0000 O   0  0  0  0  0  0  0  0  0  0  0  0
    0.0000    0.0000    0.0000 N   0  0  0  0  0  0  0  0  0  0  0  0
  1  2  1  0
  2  3  2  0
  2  4  1  0
  4  5  1  0
  5  6  2  0
  6  7  1  0
  7  8  2  0
  8  9  1  0
  9 10  1  0
 10 11  2  0
 11 12  1  0
 12 13  2  0
 10 14  1  0
 14 15  2  0
 14 16  2  0
 14 17  1  0
 13  5  1  0
 12  8  1  0
M  END
>  <pIC50>  (130) 
7.96

>  <ChEMBL_ID>  (130) 
CHEMBL354062

>  <document_journal>  (130) 
J. Med. Chem.

>  <bao_endpoint>  (130) 
BAO_0000190

>  <potential_duplicate>  (130) 
False

>  <uo_units>  (130) 
UO_0000065

>  <canonical_smiles>  (130) 
CC(=O)Oc1ccc2[nH]c(cc2c1)S(=O)(=O)N

>  <parent_molecule_chembl_id>  (130) 
CHEMBL354062

>  <assay_type>  (130) 
B

>  <src_id>  (130) 
1

>  <ligand_efficiency>  (130) 
{u'le': u'0.64', u'bei': u'31.3', u'sei': u'7.19', u'lle': u'7.24'}

>  <standard_flag>  (130) 
True

>  <molecule_chembl_id>  (130) 
CHEMBL354062

>  <target_organism>  (130) 
Homo sapiens

>  <standard_units>  (130) 
nM

>  <record_id>  (130) 
322576

>  <document_chembl_id>  (130) 
CHEMBL1124833

>  <bao_format>  (130) 
BAO_0000357

>  <data_validity_description>  (130) 
None

>  <activity_id>  (130) 
201819

>  <standard_type>  (130) 
IC50

>  <target_chembl_id>  (130) 
CHEMBL205

>  <data_validity_comment>  (130) 
None

>  <published_value>  (130) 
11

>  <document_year>  (130) 
1990

>  <target_pref_name>  (130) 
Carbonic anhydrase II

>  <assay_chembl_id>  (130) 
CHEMBL656576

>  <standard_relation>  (130) 
=

>  <assay_description>  (130) 
In vitro inhibition of human carbonic anhydrase II (0.1 nM).

>  <published_relation>  (130) 
=

>  <standard_value>  (130) 
11

>  <qudt_units>  (130) 
http://www.openphacts.org/units/Nanomolar

>  <target_tax_id>  (130) 
9606

>  <bao_label>  (130) 
single protein format

>  <published_units>  (130) 
nM

>  <pchembl_value>  (130) 
7.96

>  <published_type>  (130) 
I50

>  <activity_comment>  (130) 
None

$$$$

     RDKit          

 15 16  0  0  0  0  0  0  0  0999 V2000
    0.0000    0.0000    0.0000 C   0  0  0  0  0  0  0  0  0  0  0  0
    0.0000    0.0000    0.0000 O   0  0  0  0  0  0  0  0  0  0  0  0
    0.0000    0.0000    0.0000 C   0  0  0  0  0  0  0  0  0  0  0  0
    0.0000    0.0000    0.0000 C   0  0  0  0  0  0  0  0  0  0  0  0
    0.0000    0.0000    0.0000 C   0  0  0  0  0  0  0  0  0  0  0  0
    0.0000    0.0000    0.0000 C   0  0  0  0  0  0  0  0  0  0  0  0
    0.0000    0.0000    0.0000 C   0  0  0  0  0  0  0  0  0  0  0  0
    0.0000    0.0000    0.0000 C   0  0  0  0  0  0  0  0  0  0  0  0
    0.0000    0.0000    0.0000 O   0  0  0  0  0  0  0  0  0  0  0  0
    0.0000    0.0000    0.0000 C   0  0  0  0  0  0  0  0  0  0  0  0
    0.0000    0.0000    0.0000 C   0  0  0  0  0  0  0  0  0  0  0  0
    0.0000    0.0000    0.0000 S   0  0  0  0  0  0  0  0  0  0  0  0
    0.0000    0.0000    0.0000 O   0  0  0  0  0  0  0  0  0  0  0  0
    0.0000    0.0000    0.0000 O   0  0  0  0  0  0  0  0  0  0  0  0
    0.0000    0.0000    0.0000 N   0  0  0  0  0  0  0  0  0  0  0  0
  1  2  1  0
  2  3  1  0
  3  4  2  0
  4  5  1  0
  5  6  2  0
  6  7  1  0
  7  8  2  0
  8  9  1  0
  9 10  1  0
 10 11  2  0
  8 12  1  0
 12 13  2  0
 12 14  2  0
 12 15  1  0
 11  3  1  0
 10  6  1  0
M  END
>  <pIC50>  (131) 
7.82

>  <ChEMBL_ID>  (131) 
CHEMBL162168

>  <document_journal>  (131) 
J. Med. Chem.

>  <bao_endpoint>  (131) 
BAO_0000190

>  <potential_duplicate>  (131) 
False

>  <uo_units>  (131) 
UO_0000065

>  <canonical_smiles>  (131) 
COc1ccc2cc(oc2c1)S(=O)(=O)N

>  <parent_molecule_chembl_id>  (131) 
CHEMBL162168

>  <assay_type>  (131) 
B

>  <src_id>  (131) 
1

>  <ligand_efficiency>  (131) 
{u'le': u'0.71', u'bei': u'34.43', u'sei': u'8.61', u'lle': u'6.87'}

>  <standard_flag>  (131) 
True

>  <molecule_chembl_id>  (131) 
CHEMBL162168

>  <target_organism>  (131) 
Homo sapiens

>  <standard_units>  (131) 
nM

>  <record_id>  (131) 
322584

>  <document_chembl_id>  (131) 
CHEMBL1124833

>  <bao_format>  (131) 
BAO_0000357

>  <data_validity_description>  (131) 
None

>  <activity_id>  (131) 
203001

>  <standard_type>  (131) 
IC50

>  <target_chembl_id>  (131) 
CHEMBL205

>  <data_validity_comment>  (131) 
None

>  <published_value>  (131) 
15

>  <document_year>  (131) 
1990

>  <target_pref_name>  (131) 
Carbonic anhydrase II

>  <assay_chembl_id>  (131) 
CHEMBL656576

>  <standard_relation>  (131) 
=

>  <assay_description>  (131) 
In vitro inhibition of human carbonic anhydrase II (0.1 nM).

>  <published_relation>  (131) 
=

>  <standard_value>  (131) 
15

>  <qudt_units>  (131) 
http://www.openphacts.org/units/Nanomolar

>  <target_tax_id>  (131) 
9606

>  <bao_label>  (131) 
single protein format

>  <published_units>  (131) 
nM

>  <pchembl_value>  (131) 
7.82

>  <published_type>  (131) 
I50

>  <activity_comment>  (131) 
None

$$$$

     RDKit          

 14 15  0  0  0  0  0  0  0  0999 V2000
    0.0000    0.0000    0.0000 N   0  0  0  0  0  0  0  0  0  0  0  0
    0.0000    0.0000    0.0000 S   0  0  0  0  0  0  0  0  0  0  0  0
    0.0000    0.0000    0.0000 O   0  0  0  0  0  0  0  0  0  0  0  0
    0.0000    0.0000    0.0000 O   0  0  0  0  0  0  0  0  0  0  0  0
    0.0000    0.0000    0.0000 C   0  0  0  0  0  0  0  0  0  0  0  0
    0.0000    0.0000    0.0000 O   0  0  0  0  0  0  0  0  0  0  0  0
    0.0000    0.0000    0.0000 C   0  0  0  0  0  0  0  0  0  0  0  0
    0.0000    0.0000    0.0000 C   0  0  0  0  0  0  0  0  0  0  0  0
    0.0000    0.0000    0.0000 C   0  0  0  0  0  0  0  0  0  0  0  0
    0.0000    0.0000    0.0000 O   0  0  0  0  0  0  0  0  0  0  0  0
    0.0000    0.0000    0.0000 C   0  0  0  0  0  0  0  0  0  0  0  0
    0.0000    0.0000    0.0000 C   0  0  0  0  0  0  0  0  0  0  0  0
    0.0000    0.0000    0.0000 C   0  0  0  0  0  0  0  0  0  0  0  0
    0.0000    0.0000    0.0000 C   0  0  0  0  0  0  0  0  0  0  0  0
  1  2  1  0
  2  3  2  0
  2  4  2  0
  2  5  1  0
  5  6  1  0
  6  7  1  0
  7  8  2  0
  8  9  1  0
  9 10  1  0
  9 11  2  0
 11 12  1  0
 12 13  2  0
 13 14  1  0
 14  5  2  0
 13  7  1  0
M  END
>  <pIC50>  (132) 
7.96

>  <ChEMBL_ID>  (132) 
CHEMBL354386

>  <document_journal>  (132) 
J. Med. Chem.

>  <bao_endpoint>  (132) 
BAO_0000190

>  <potential_duplicate>  (132) 
False

>  <uo_units>  (132) 
UO_0000065

>  <canonical_smiles>  (132) 
NS(=O)(=O)c1oc2cc(O)ccc2c1

>  <parent_molecule_chembl_id>  (132) 
CHEMBL354386

>  <assay_type>  (132) 
B

>  <src_id>  (132) 
1

>  <ligand_efficiency>  (132) 
{u'le': u'0.78', u'bei': u'37.33', u'sei': u'7.81', u'lle': u'7.24'}

>  <standard_flag>  (132) 
True

>  <molecule_chembl_id>  (132) 
CHEMBL354386

>  <target_organism>  (132) 
Homo sapiens

>  <standard_units>  (132) 
nM

>  <record_id>  (132) 
322580

>  <document_chembl_id>  (132) 
CHEMBL1124833

>  <bao_format>  (132) 
BAO_0000357

>  <data_validity_description>  (132) 
None

>  <activity_id>  (132) 
203003

>  <standard_type>  (132) 
IC50

>  <target_chembl_id>  (132) 
CHEMBL205

>  <data_validity_comment>  (132) 
None

>  <published_value>  (132) 
11

>  <document_year>  (132) 
1990

>  <target_pref_name>  (132) 
Carbonic anhydrase II

>  <assay_chembl_id>  (132) 
CHEMBL656576

>  <standard_relation>  (132) 
=

>  <assay_description>  (132) 
In vitro inhibition of human carbonic anhydrase II (0.1 nM).

>  <published_relation>  (132) 
=

>  <standard_value>  (132) 
11

>  <qudt_units>  (132) 
http://www.openphacts.org/units/Nanomolar

>  <target_tax_id>  (132) 
9606

>  <bao_label>  (132) 
single protein format

>  <published_units>  (132) 
nM

>  <pchembl_value>  (132) 
7.96

>  <published_type>  (132) 
I50

>  <activity_comment>  (132) 
None

$$$$

     RDKit          

 16 17  0  0  0  0  0  0  0  0999 V2000
    0.0000    0.0000    0.0000 C   0  0  0  0  0  0  0  0  0  0  0  0
    0.0000    0.0000    0.0000 O   0  0  0  0  0  0  0  0  0  0  0  0
    0.0000    0.0000    0.0000 C   0  0  0  0  0  0  0  0  0  0  0  0
    0.0000    0.0000    0.0000 C   0  0  0  0  0  0  0  0  0  0  0  0
    0.0000    0.0000    0.0000 C   0  0  0  0  0  0  0  0  0  0  0  0
    0.0000    0.0000    0.0000 C   0  0  0  0  0  0  0  0  0  0  0  0
    0.0000    0.0000    0.0000 C   0  0  0  0  0  0  0  0  0  0  0  0
    0.0000    0.0000    0.0000 C   0  0  0  0  0  0  0  0  0  0  0  0
    0.0000    0.0000    0.0000 N   0  0  0  0  0  0  0  0  0  0  0  0
    0.0000    0.0000    0.0000 C   0  0  0  0  0  0  0  0  0  0  0  0
    0.0000    0.0000    0.0000 C   0  0  0  0  0  0  0  0  0  0  0  0
    0.0000    0.0000    0.0000 C   0  0  0  0  0  0  0  0  0  0  0  0
    0.0000    0.0000    0.0000 S   0  0  0  0  0  0  0  0  0  0  0  0
    0.0000    0.0000    0.0000 O   0  0  0  0  0  0  0  0  0  0  0  0
    0.0000    0.0000    0.0000 O   0  0  0  0  0  0  0  0  0  0  0  0
    0.0000    0.0000    0.0000 N   0  0  0  0  0  0  0  0  0  0  0  0
  1  2  1  0
  2  3  1  0
  3  4  2  0
  4  5  1  0
  5  6  2  0
  6  7  1  0
  7  8  2  0
  8  9  1  0
  9 10  1  0
  9 11  1  0
 11 12  2  0
  8 13  1  0
 13 14  2  0
 13 15  2  0
 13 16  1  0
 12  3  1  0
 11  6  1  0
M  END
>  <pIC50>  (133) 
6.96

>  <ChEMBL_ID>  (133) 
CHEMBL164438

>  <document_journal>  (133) 
J. Med. Chem.

>  <bao_endpoint>  (133) 
BAO_0000190

>  <potential_duplicate>  (133) 
False

>  <uo_units>  (133) 
UO_0000065

>  <canonical_smiles>  (133) 
COc1ccc2cc(n(C)c2c1)S(=O)(=O)N

>  <parent_molecule_chembl_id>  (133) 
CHEMBL164438

>  <assay_type>  (133) 
B

>  <src_id>  (133) 
1

>  <ligand_efficiency>  (133) 
{u'le': u'0.59', u'bei': u'28.96', u'sei': u'8.41', u'lle': u'5.82'}

>  <standard_flag>  (133) 
True

>  <molecule_chembl_id>  (133) 
CHEMBL164438

>  <target_organism>  (133) 
Homo sapiens

>  <standard_units>  (133) 
nM

>  <record_id>  (133) 
322574

>  <document_chembl_id>  (133) 
CHEMBL1124833

>  <bao_format>  (133) 
BAO_0000357

>  <data_validity_description>  (133) 
None

>  <activity_id>  (133) 
203010

>  <standard_type>  (133) 
IC50

>  <target_chembl_id>  (133) 
CHEMBL205

>  <data_validity_comment>  (133) 
None

>  <published_value>  (133) 
110

>  <document_year>  (133) 
1990

>  <target_pref_name>  (133) 
Carbonic anhydrase II

>  <assay_chembl_id>  (133) 
CHEMBL656576

>  <standard_relation>  (133) 
=

>  <assay_description>  (133) 
In vitro inhibition of human carbonic anhydrase II (0.1 nM).

>  <published_relation>  (133) 
=

>  <standard_value>  (133) 
110

>  <qudt_units>  (133) 
http://www.openphacts.org/units/Nanomolar

>  <target_tax_id>  (133) 
9606

>  <bao_label>  (133) 
single protein format

>  <published_units>  (133) 
nM

>  <pchembl_value>  (133) 
6.96

>  <published_type>  (133) 
I50

>  <activity_comment>  (133) 
None

$$$$

     RDKit          

 17 17  0  0  0  0  0  0  0  0999 V2000
    0.0000    0.0000    0.0000 N   0  0  0  0  0  0  0  0  0  0  0  0
    0.0000    0.0000    0.0000 S   0  0  0  0  0  0  0  0  0  0  0  0
    0.0000    0.0000    0.0000 O   0  0  0  0  0  0  0  0  0  0  0  0
    0.0000    0.0000    0.0000 O   0  0  0  0  0  0  0  0  0  0  0  0
    0.0000    0.0000    0.0000 C   0  0  0  0  0  0  0  0  0  0  0  0
    0.0000    0.0000    0.0000 C   0  0  0  0  0  0  0  0  0  0  0  0
    0.0000    0.0000    0.0000 C   0  0  0  0  0  0  0  0  0  0  0  0
    0.0000    0.0000    0.0000 C   0  0  0  0  0  0  0  0  0  0  0  0
    0.0000    0.0000    0.0000 S   0  0  0  0  0  0  0  0  0  0  0  0
    0.0000    0.0000    0.0000 C   0  0  0  0  0  0  0  0  0  0  0  0
    0.0000    0.0000    0.0000 C   0  0  0  0  0  0  0  0  0  0  0  0
    0.0000    0.0000    0.0000 C   0  0  0  0  0  0  0  0  0  0  0  0
    0.0000    0.0000    0.0000 C   0  0  0  0  0  0  0  0  0  0  0  0
    0.0000    0.0000    0.0000 C   0  0  0  0  0  0  0  0  0  0  0  0
    0.0000    0.0000    0.0000 O   0  0  0  0  0  0  0  0  0  0  0  0
    0.0000    0.0000    0.0000 C   0  0  0  0  0  0  0  0  0  0  0  0
    0.0000    0.0000    0.0000 C   0  0  0  0  0  0  0  0  0  0  0  0
  1  2  1  0
  2  3  2  0
  2  4  2  0
  2  5  1  0
  5  6  2  0
  6  7  1  0
  7  8  2  0
  8  9  1  0
  9 10  1  0
 10 11  1  0
 11 12  1  0
 12 13  1  0
 13 14  1  0
 14 15  1  0
  8 16  1  0
 16 17  2  0
 17  5  1  0
M  END
>  <pIC50>  (134) 
8.37

>  <ChEMBL_ID>  (134) 
CHEMBL319239

>  <document_journal>  (134) 
J. Med. Chem.

>  <bao_endpoint>  (134) 
BAO_0000190

>  <potential_duplicate>  (134) 
False

>  <uo_units>  (134) 
UO_0000065

>  <canonical_smiles>  (134) 
NS(=O)(=O)c1ccc(SCCCCCO)cc1

>  <parent_molecule_chembl_id>  (134) 
CHEMBL319239

>  <assay_type>  (134) 
F

>  <src_id>  (134) 
1

>  <ligand_efficiency>  (134) 
None

>  <standard_flag>  (134) 
True

>  <molecule_chembl_id>  (134) 
CHEMBL319239

>  <target_organism>  (134) 
Homo sapiens

>  <standard_units>  (134) 
nM

>  <record_id>  (134) 
197034

>  <document_chembl_id>  (134) 
CHEMBL1125912

>  <bao_format>  (134) 
BAO_0000019

>  <data_validity_description>  (134) 
None

>  <activity_id>  (134) 
203086

>  <standard_type>  (134) 
IC50

>  <target_chembl_id>  (134) 
CHEMBL205

>  <data_validity_comment>  (134) 
None

>  <published_value>  (134) 
4.3

>  <document_year>  (134) 
1991

>  <target_pref_name>  (134) 
Carbonic anhydrase II

>  <assay_chembl_id>  (134) 
CHEMBL694391

>  <standard_relation>  (134) 
=

>  <assay_description>  (134) 
Inhibitory activity against human carbonic anhydrase II using pH stat assay

>  <published_relation>  (134) 
=

>  <standard_value>  (134) 
4.3

>  <qudt_units>  (134) 
http://www.openphacts.org/units/Nanomolar

>  <target_tax_id>  (134) 
9606

>  <bao_label>  (134) 
assay format

>  <published_units>  (134) 
nM

>  <pchembl_value>  (134) 
8.37

>  <published_type>  (134) 
I50

>  <activity_comment>  (134) 
None

$$$$

     RDKit          

 14 15  0  0  0  0  0  0  0  0999 V2000
    0.0000    0.0000    0.0000 N   0  0  0  0  0  0  0  0  0  0  0  0
    0.0000    0.0000    0.0000 C   0  0  0  0  0  0  0  0  0  0  0  0
    0.0000    0.0000    0.0000 C   0  0  0  0  0  0  0  0  0  0  0  0
    0.0000    0.0000    0.0000 C   0  0  0  0  0  0  0  0  0  0  0  0
    0.0000    0.0000    0.0000 C   0  0  0  0  0  0  0  0  0  0  0  0
    0.0000    0.0000    0.0000 O   0  0  0  0  0  0  0  0  0  0  0  0
    0.0000    0.0000    0.0000 C   0  0  0  0  0  0  0  0  0  0  0  0
    0.0000    0.0000    0.0000 C   0  0  0  0  0  0  0  0  0  0  0  0
    0.0000    0.0000    0.0000 C   0  0  0  0  0  0  0  0  0  0  0  0
    0.0000    0.0000    0.0000 C   0  0  0  0  0  0  0  0  0  0  0  0
    0.0000    0.0000    0.0000 S   0  0  0  0  0  0  0  0  0  0  0  0
    0.0000    0.0000    0.0000 O   0  0  0  0  0  0  0  0  0  0  0  0
    0.0000    0.0000    0.0000 O   0  0  0  0  0  0  0  0  0  0  0  0
    0.0000    0.0000    0.0000 N   0  0  0  0  0  0  0  0  0  0  0  0
  1  2  1  0
  2  3  2  0
  3  4  1  0
  4  5  2  0
  5  6  1  0
  6  7  1  0
  7  8  2  0
  8  9  1  0
  9 10  2  0
  7 11  1  0
 11 12  2  0
 11 13  2  0
 11 14  1  0
 10  2  1  0
  9  5  1  0
M  END
>  <pIC50>  (135) 
8.05

>  <ChEMBL_ID>  (135) 
CHEMBL164126

>  <document_journal>  (135) 
J. Med. Chem.

>  <bao_endpoint>  (135) 
BAO_0000190

>  <potential_duplicate>  (135) 
False

>  <uo_units>  (135) 
UO_0000065

>  <canonical_smiles>  (135) 
Nc1ccc2oc(cc2c1)S(=O)(=O)N

>  <parent_molecule_chembl_id>  (135) 
CHEMBL164126

>  <assay_type>  (135) 
B

>  <src_id>  (135) 
1

>  <ligand_efficiency>  (135) 
{u'le': u'0.78', u'bei': u'37.91', u'sei': u'7.47', u'lle': u'7.83'}

>  <standard_flag>  (135) 
True

>  <molecule_chembl_id>  (135) 
CHEMBL164126

>  <target_organism>  (135) 
Homo sapiens

>  <standard_units>  (135) 
nM

>  <record_id>  (135) 
322569

>  <document_chembl_id>  (135) 
CHEMBL1124833

>  <bao_format>  (135) 
BAO_0000357

>  <data_validity_description>  (135) 
None

>  <activity_id>  (135) 
204258

>  <standard_type>  (135) 
IC50

>  <target_chembl_id>  (135) 
CHEMBL205

>  <data_validity_comment>  (135) 
None

>  <published_value>  (135) 
9

>  <document_year>  (135) 
1990

>  <target_pref_name>  (135) 
Carbonic anhydrase II

>  <assay_chembl_id>  (135) 
CHEMBL656576

>  <standard_relation>  (135) 
=

>  <assay_description>  (135) 
In vitro inhibition of human carbonic anhydrase II (0.1 nM).

>  <published_relation>  (135) 
=

>  <standard_value>  (135) 
9

>  <qudt_units>  (135) 
http://www.openphacts.org/units/Nanomolar

>  <target_tax_id>  (135) 
9606

>  <bao_label>  (135) 
single protein format

>  <published_units>  (135) 
nM

>  <pchembl_value>  (135) 
8.05

>  <published_type>  (135) 
I50

>  <activity_comment>  (135) 
None

$$$$

     RDKit          

 14 14  0  0  0  0  0  0  0  0999 V2000
    0.0000    0.0000    0.0000 N   0  0  0  0  0  0  0  0  0  0  0  0
    0.0000    0.0000    0.0000 S   0  0  0  0  0  0  0  0  0  0  0  0
    0.0000    0.0000    0.0000 O   0  0  0  0  0  0  0  0  0  0  0  0
    0.0000    0.0000    0.0000 O   0  0  0  0  0  0  0  0  0  0  0  0
    0.0000    0.0000    0.0000 C   0  0  0  0  0  0  0  0  0  0  0  0
    0.0000    0.0000    0.0000 C   0  0  0  0  0  0  0  0  0  0  0  0
    0.0000    0.0000    0.0000 C   0  0  0  0  0  0  0  0  0  0  0  0
    0.0000    0.0000    0.0000 C   0  0  0  0  0  0  0  0  0  0  0  0
    0.0000    0.0000    0.0000 S   0  0  0  0  0  0  0  0  0  0  0  0
    0.0000    0.0000    0.0000 C   0  0  0  0  0  0  0  0  0  0  0  0
    0.0000    0.0000    0.0000 C   0  0  0  0  0  0  0  0  0  0  0  0
    0.0000    0.0000    0.0000 O   0  0  0  0  0  0  0  0  0  0  0  0
    0.0000    0.0000    0.0000 C   0  0  0  0  0  0  0  0  0  0  0  0
    0.0000    0.0000    0.0000 C   0  0  0  0  0  0  0  0  0  0  0  0
  1  2  1  0
  2  3  2  0
  2  4  2  0
  2  5  1  0
  5  6  2  0
  6  7  1  0
  7  8  2  0
  8  9  1  0
  9 10  1  0
 10 11  1  0
 11 12  1  0
  8 13  1  0
 13 14  2  0
 14  5  1  0
M  END
>  <pIC50>  (136) 
7.325

>  <ChEMBL_ID>  (136) 
CHEMBL106848

>  <document_journal>  (136) 
J. Med. Chem.

>  <bao_endpoint>  (136) 
BAO_0000190

>  <potential_duplicate>  (136) 
False

>  <uo_units>  (136) 
UO_0000065

>  <canonical_smiles>  (136) 
NS(=O)(=O)c1ccc(SCCO)cc1

>  <parent_molecule_chembl_id>  (136) 
CHEMBL106848

>  <assay_type>  (136) 
F

>  <src_id>  (136) 
1

>  <ligand_efficiency>  (136) 
None

>  <standard_flag>  (136) 
True

>  <molecule_chembl_id>  (136) 
CHEMBL106848

>  <target_organism>  (136) 
Homo sapiens

>  <standard_units>  (136) 
nM

>  <record_id>  (136) 
196992

>  <document_chembl_id>  (136) 
CHEMBL1125912

>  <bao_format>  (136) 
BAO_0000019

>  <data_validity_description>  (136) 
None

>  <activity_id>  (136) 
205444

>  <standard_type>  (136) 
IC50

>  <target_chembl_id>  (136) 
CHEMBL205

>  <data_validity_comment>  (136) 
None

>  <published_value>  (136) 
37

>  <document_year>  (136) 
1991

>  <target_pref_name>  (136) 
Carbonic anhydrase II

>  <assay_chembl_id>  (136) 
CHEMBL694391

>  <standard_relation>  (136) 
=

>  <assay_description>  (136) 
Inhibitory activity against human carbonic anhydrase II using pH stat assay

>  <published_relation>  (136) 
=

>  <standard_value>  (136) 
37

>  <qudt_units>  (136) 
http://www.openphacts.org/units/Nanomolar

>  <target_tax_id>  (136) 
9606

>  <bao_label>  (136) 
assay format

>  <published_units>  (136) 
nM

>  <pchembl_value>  (136) 
7.43

>  <published_type>  (136) 
I50

>  <activity_comment>  (136) 
None

$$$$

     RDKit          

 18 18  0  0  0  0  0  0  0  0999 V2000
    0.0000    0.0000    0.0000 N   0  0  0  0  0  0  0  0  0  0  0  0
    0.0000    0.0000    0.0000 S   0  0  0  0  0  0  0  0  0  0  0  0
    0.0000    0.0000    0.0000 O   0  0  0  0  0  0  0  0  0  0  0  0
    0.0000    0.0000    0.0000 O   0  0  0  0  0  0  0  0  0  0  0  0
    0.0000    0.0000    0.0000 C   0  0  0  0  0  0  0  0  0  0  0  0
    0.0000    0.0000    0.0000 C   0  0  0  0  0  0  0  0  0  0  0  0
    0.0000    0.0000    0.0000 C   0  0  0  0  0  0  0  0  0  0  0  0
    0.0000    0.0000    0.0000 C   0  0  0  0  0  0  0  0  0  0  0  0
    0.0000    0.0000    0.0000 C   0  0  0  0  0  0  0  0  0  0  0  0
    0.0000    0.0000    0.0000 F   0  0  0  0  0  0  0  0  0  0  0  0
    0.0000    0.0000    0.0000 C   0  0  0  0  0  0  0  0  0  0  0  0
    0.0000    0.0000    0.0000 S   0  0  0  0  0  0  0  0  0  0  0  0
    0.0000    0.0000    0.0000 O   0  0  0  0  0  0  0  0  0  0  0  0
    0.0000    0.0000    0.0000 O   0  0  0  0  0  0  0  0  0  0  0  0
    0.0000    0.0000    0.0000 C   0  0  0  0  0  0  0  0  0  0  0  0
    0.0000    0.0000    0.0000 C   0  0  0  0  0  0  0  0  0  0  0  0
    0.0000    0.0000    0.0000 C   0  0  0  0  0  0  0  0  0  0  0  0
    0.0000    0.0000    0.0000 O   0  0  0  0  0  0  0  0  0  0  0  0
  1  2  1  0
  2  3  2  0
  2  4  2  0
  2  5  1  0
  5  6  2  0
  6  7  1  0
  7  8  2  0
  8  9  1  0
  9 10  1  0
  9 11  2  0
  8 12  1  0
 12 13  2  0
 12 14  2  0
 12 15  1  0
 15 16  1  0
 16 17  1  0
 17 18  1  0
 11  5  1  0
M  END
>  <pIC50>  (137) 
8.35

>  <ChEMBL_ID>  (137) 
CHEMBL104868

>  <document_journal>  (137) 
J. Med. Chem.

>  <bao_endpoint>  (137) 
BAO_0000190

>  <potential_duplicate>  (137) 
False

>  <uo_units>  (137) 
UO_0000065

>  <canonical_smiles>  (137) 
NS(=O)(=O)c1ccc(c(F)c1)S(=O)(=O)CCCO

>  <parent_molecule_chembl_id>  (137) 
CHEMBL104868

>  <assay_type>  (137) 
F

>  <src_id>  (137) 
1

>  <ligand_efficiency>  (137) 
None

>  <standard_flag>  (137) 
True

>  <molecule_chembl_id>  (137) 
CHEMBL104868

>  <target_organism>  (137) 
Homo sapiens

>  <standard_units>  (137) 
nM

>  <record_id>  (137) 
197003

>  <document_chembl_id>  (137) 
CHEMBL1125912

>  <bao_format>  (137) 
BAO_0000019

>  <data_validity_description>  (137) 
None

>  <activity_id>  (137) 
205448

>  <standard_type>  (137) 
IC50

>  <target_chembl_id>  (137) 
CHEMBL205

>  <data_validity_comment>  (137) 
None

>  <published_value>  (137) 
4.5

>  <document_year>  (137) 
1991

>  <target_pref_name>  (137) 
Carbonic anhydrase II

>  <assay_chembl_id>  (137) 
CHEMBL694391

>  <standard_relation>  (137) 
=

>  <assay_description>  (137) 
Inhibitory activity against human carbonic anhydrase II using pH stat assay

>  <published_relation>  (137) 
=

>  <standard_value>  (137) 
4.5

>  <qudt_units>  (137) 
http://www.openphacts.org/units/Nanomolar

>  <target_tax_id>  (137) 
9606

>  <bao_label>  (137) 
assay format

>  <published_units>  (137) 
nM

>  <pchembl_value>  (137) 
8.35

>  <published_type>  (137) 
I50

>  <activity_comment>  (137) 
None

$$$$

     RDKit          

 18 18  0  0  0  0  0  0  0  0999 V2000
    0.0000    0.0000    0.0000 N   0  0  0  0  0  0  0  0  0  0  0  0
    0.0000    0.0000    0.0000 S   0  0  0  0  0  0  0  0  0  0  0  0
    0.0000    0.0000    0.0000 O   0  0  0  0  0  0  0  0  0  0  0  0
    0.0000    0.0000    0.0000 O   0  0  0  0  0  0  0  0  0  0  0  0
    0.0000    0.0000    0.0000 C   0  0  0  0  0  0  0  0  0  0  0  0
    0.0000    0.0000    0.0000 C   0  0  0  0  0  0  0  0  0  0  0  0
    0.0000    0.0000    0.0000 C   0  0  0  0  0  0  0  0  0  0  0  0
    0.0000    0.0000    0.0000 C   0  0  0  0  0  0  0  0  0  0  0  0
    0.0000    0.0000    0.0000 S   0  0  0  0  0  0  0  0  0  0  0  0
    0.0000    0.0000    0.0000 C   0  0  0  0  0  0  0  0  0  0  0  0
    0.0000    0.0000    0.0000 C   0  0  0  0  0  0  0  0  0  0  0  0
    0.0000    0.0000    0.0000 C   0  0  0  0  0  0  0  0  0  0  0  0
    0.0000    0.0000    0.0000 O   0  0  0  0  0  0  0  0  0  0  0  0
    0.0000    0.0000    0.0000 C   0  0  0  0  0  0  0  0  0  0  0  0
    0.0000    0.0000    0.0000 C   0  0  0  0  0  0  0  0  0  0  0  0
    0.0000    0.0000    0.0000 N   0  0  0  0  0  0  0  0  0  0  0  0
    0.0000    0.0000    0.0000 O   0  0  0  0  0  0  0  0  0  0  0  0
    0.0000    0.0000    0.0000 O   0  0  0  0  0  0  0  0  0  0  0  0
  1  2  1  0
  2  3  2  0
  2  4  2  0
  2  5  1  0
  5  6  2  0
  6  7  1  0
  7  8  2  0
  8  9  1  0
  9 10  1  0
 10 11  1  0
 11 12  1  0
 12 13  1  0
  8 14  1  0
 14 15  2  0
 14 16  1  0
 16 17  2  0
 16 18  1  0
 15  5  1  0
M  CHG  2  16   1  18  -1
M  END
>  <pIC50>  (138) 
7.64

>  <ChEMBL_ID>  (138) 
CHEMBL108015

>  <document_journal>  (138) 
J. Med. Chem.

>  <bao_endpoint>  (138) 
BAO_0000190

>  <potential_duplicate>  (138) 
False

>  <uo_units>  (138) 
UO_0000065

>  <canonical_smiles>  (138) 
NS(=O)(=O)c1ccc(SCCCO)c(c1)[N+](=O)[O-]

>  <parent_molecule_chembl_id>  (138) 
CHEMBL108015

>  <assay_type>  (138) 
F

>  <src_id>  (138) 
1

>  <ligand_efficiency>  (138) 
None

>  <standard_flag>  (138) 
True

>  <molecule_chembl_id>  (138) 
CHEMBL108015

>  <target_organism>  (138) 
Homo sapiens

>  <standard_units>  (138) 
nM

>  <record_id>  (138) 
196999

>  <document_chembl_id>  (138) 
CHEMBL1125912

>  <bao_format>  (138) 
BAO_0000019

>  <data_validity_description>  (138) 
None

>  <activity_id>  (138) 
205454

>  <standard_type>  (138) 
IC50

>  <target_chembl_id>  (138) 
CHEMBL205

>  <data_validity_comment>  (138) 
None

>  <published_value>  (138) 
23

>  <document_year>  (138) 
1991

>  <target_pref_name>  (138) 
Carbonic anhydrase II

>  <assay_chembl_id>  (138) 
CHEMBL694391

>  <standard_relation>  (138) 
=

>  <assay_description>  (138) 
Inhibitory activity against human carbonic anhydrase II using pH stat assay

>  <published_relation>  (138) 
=

>  <standard_value>  (138) 
23

>  <qudt_units>  (138) 
http://www.openphacts.org/units/Nanomolar

>  <target_tax_id>  (138) 
9606

>  <bao_label>  (138) 
assay format

>  <published_units>  (138) 
nM

>  <pchembl_value>  (138) 
7.64

>  <published_type>  (138) 
I50

>  <activity_comment>  (138) 
None

$$$$

     RDKit          

 18 18  0  0  0  0  0  0  0  0999 V2000
    0.0000    0.0000    0.0000 N   0  0  0  0  0  0  0  0  0  0  0  0
    0.0000    0.0000    0.0000 S   0  0  0  0  0  0  0  0  0  0  0  0
    0.0000    0.0000    0.0000 O   0  0  0  0  0  0  0  0  0  0  0  0
    0.0000    0.0000    0.0000 O   0  0  0  0  0  0  0  0  0  0  0  0
    0.0000    0.0000    0.0000 C   0  0  0  0  0  0  0  0  0  0  0  0
    0.0000    0.0000    0.0000 C   0  0  0  0  0  0  0  0  0  0  0  0
    0.0000    0.0000    0.0000 C   0  0  0  0  0  0  0  0  0  0  0  0
    0.0000    0.0000    0.0000 C   0  0  0  0  0  0  0  0  0  0  0  0
    0.0000    0.0000    0.0000 S   0  0  0  0  0  0  0  0  0  0  0  0
    0.0000    0.0000    0.0000 C   0  0  0  0  0  0  0  0  0  0  0  0
    0.0000    0.0000    0.0000 C   0  0  0  0  0  0  0  0  0  0  0  0
    0.0000    0.0000    0.0000 C   0  0  0  0  0  0  0  0  0  0  0  0
    0.0000    0.0000    0.0000 O   0  0  0  0  0  0  0  0  0  0  0  0
    0.0000    0.0000    0.0000 C   0  0  0  0  0  0  0  0  0  0  0  0
    0.0000    0.0000    0.0000 C   0  0  0  0  0  0  0  0  0  0  0  0
    0.0000    0.0000    0.0000 C   0  0  0  0  0  0  0  0  0  0  0  0
    0.0000    0.0000    0.0000 O   0  0  0  0  0  0  0  0  0  0  0  0
    0.0000    0.0000    0.0000 O   0  0  0  0  0  0  0  0  0  0  0  0
  1  2  1  0
  2  3  2  0
  2  4  2  0
  2  5  1  0
  5  6  2  0
  6  7  1  0
  7  8  2  0
  8  9  1  0
  9 10  1  0
 10 11  1  0
 11 12  1  0
 12 13  1  0
  8 14  1  0
 14 15  2  0
 14 16  1  0
 16 17  2  0
 16 18  1  0
 15  5  1  0
M  END
>  <pIC50>  (139) 
5.0

>  <ChEMBL_ID>  (139) 
CHEMBL105380

>  <document_journal>  (139) 
J. Med. Chem.

>  <bao_endpoint>  (139) 
BAO_0000190

>  <potential_duplicate>  (139) 
False

>  <uo_units>  (139) 
UO_0000065

>  <canonical_smiles>  (139) 
NS(=O)(=O)c1ccc(SCCCO)c(c1)C(=O)O

>  <parent_molecule_chembl_id>  (139) 
CHEMBL105380

>  <assay_type>  (139) 
F

>  <src_id>  (139) 
1

>  <ligand_efficiency>  (139) 
None

>  <standard_flag>  (139) 
True

>  <molecule_chembl_id>  (139) 
CHEMBL105380

>  <target_organism>  (139) 
Homo sapiens

>  <standard_units>  (139) 
nM

>  <record_id>  (139) 
197013

>  <document_chembl_id>  (139) 
CHEMBL1125912

>  <bao_format>  (139) 
BAO_0000019

>  <data_validity_description>  (139) 
None

>  <activity_id>  (139) 
205458

>  <standard_type>  (139) 
IC50

>  <target_chembl_id>  (139) 
CHEMBL205

>  <data_validity_comment>  (139) 
None

>  <published_value>  (139) 
10000

>  <document_year>  (139) 
1991

>  <target_pref_name>  (139) 
Carbonic anhydrase II

>  <assay_chembl_id>  (139) 
CHEMBL694391

>  <standard_relation>  (139) 
=

>  <assay_description>  (139) 
Inhibitory activity against human carbonic anhydrase II using pH stat assay

>  <published_relation>  (139) 
=

>  <standard_value>  (139) 
10000

>  <qudt_units>  (139) 
http://www.openphacts.org/units/Nanomolar

>  <target_tax_id>  (139) 
9606

>  <bao_label>  (139) 
assay format

>  <published_units>  (139) 
nM

>  <pchembl_value>  (139) 
5

>  <published_type>  (139) 
I50

>  <activity_comment>  (139) 
None

$$$$

     RDKit          

 14 14  0  0  0  0  0  0  0  0999 V2000
    0.0000    0.0000    0.0000 N   0  0  0  0  0  0  0  0  0  0  0  0
    0.0000    0.0000    0.0000 S   0  0  0  0  0  0  0  0  0  0  0  0
    0.0000    0.0000    0.0000 O   0  0  0  0  0  0  0  0  0  0  0  0
    0.0000    0.0000    0.0000 O   0  0  0  0  0  0  0  0  0  0  0  0
    0.0000    0.0000    0.0000 C   0  0  0  0  0  0  0  0  0  0  0  0
    0.0000    0.0000    0.0000 C   0  0  0  0  0  0  0  0  0  0  0  0
    0.0000    0.0000    0.0000 C   0  0  0  0  0  0  0  0  0  0  0  0
    0.0000    0.0000    0.0000 C   0  0  0  0  0  0  0  0  0  0  0  0
    0.0000    0.0000    0.0000 C   0  0  0  0  0  0  0  0  0  0  0  0
    0.0000    0.0000    0.0000 C   0  0  0  0  0  0  0  0  0  0  0  0
    0.0000    0.0000    0.0000 C   0  0  0  0  0  0  0  0  0  0  0  0
    0.0000    0.0000    0.0000 O   0  0  0  0  0  0  0  0  0  0  0  0
    0.0000    0.0000    0.0000 C   0  0  0  0  0  0  0  0  0  0  0  0
    0.0000    0.0000    0.0000 C   0  0  0  0  0  0  0  0  0  0  0  0
  1  2  1  0
  2  3  2  0
  2  4  2  0
  2  5  1  0
  5  6  2  0
  6  7  1  0
  7  8  2  0
  8  9  1  0
  9 10  1  0
 10 11  1  0
 11 12  1  0
  8 13  1  0
 13 14  2  0
 14  5  1  0
M  END
>  <pIC50>  (140) 
7.19

>  <ChEMBL_ID>  (140) 
CHEMBL105573

>  <document_journal>  (140) 
J. Med. Chem.

>  <bao_endpoint>  (140) 
BAO_0000190

>  <potential_duplicate>  (140) 
False

>  <uo_units>  (140) 
UO_0000065

>  <canonical_smiles>  (140) 
NS(=O)(=O)c1ccc(CCCO)cc1

>  <parent_molecule_chembl_id>  (140) 
CHEMBL105573

>  <assay_type>  (140) 
F

>  <src_id>  (140) 
1

>  <ligand_efficiency>  (140) 
None

>  <standard_flag>  (140) 
True

>  <molecule_chembl_id>  (140) 
CHEMBL105573

>  <target_organism>  (140) 
Homo sapiens

>  <standard_units>  (140) 
nM

>  <record_id>  (140) 
197007

>  <document_chembl_id>  (140) 
CHEMBL1125912

>  <bao_format>  (140) 
BAO_0000019

>  <data_validity_description>  (140) 
None

>  <activity_id>  (140) 
205462

>  <standard_type>  (140) 
IC50

>  <target_chembl_id>  (140) 
CHEMBL205

>  <data_validity_comment>  (140) 
None

>  <published_value>  (140) 
64

>  <document_year>  (140) 
1991

>  <target_pref_name>  (140) 
Carbonic anhydrase II

>  <assay_chembl_id>  (140) 
CHEMBL694391

>  <standard_relation>  (140) 
=

>  <assay_description>  (140) 
Inhibitory activity against human carbonic anhydrase II using pH stat assay

>  <published_relation>  (140) 
=

>  <standard_value>  (140) 
64

>  <qudt_units>  (140) 
http://www.openphacts.org/units/Nanomolar

>  <target_tax_id>  (140) 
9606

>  <bao_label>  (140) 
assay format

>  <published_units>  (140) 
nM

>  <pchembl_value>  (140) 
7.19

>  <published_type>  (140) 
I50

>  <activity_comment>  (140) 
None

$$$$

     RDKit          

 13 13  0  0  0  0  0  0  0  0999 V2000
    0.0000    0.0000    0.0000 N   0  0  0  0  0  0  0  0  0  0  0  0
    0.0000    0.0000    0.0000 S   0  0  0  0  0  0  0  0  0  0  0  0
    0.0000    0.0000    0.0000 O   0  0  0  0  0  0  0  0  0  0  0  0
    0.0000    0.0000    0.0000 O   0  0  0  0  0  0  0  0  0  0  0  0
    0.0000    0.0000    0.0000 C   0  0  0  0  0  0  0  0  0  0  0  0
    0.0000    0.0000    0.0000 C   0  0  0  0  0  0  0  0  0  0  0  0
    0.0000    0.0000    0.0000 C   0  0  0  0  0  0  0  0  0  0  0  0
    0.0000    0.0000    0.0000 C   0  0  0  0  0  0  0  0  0  0  0  0
    0.0000    0.0000    0.0000 S   0  0  0  0  0  0  0  0  0  0  0  0
    0.0000    0.0000    0.0000 C   0  0  0  0  0  0  0  0  0  0  0  0
    0.0000    0.0000    0.0000 C   0  0  0  0  0  0  0  0  0  0  0  0
    0.0000    0.0000    0.0000 O   0  0  0  0  0  0  0  0  0  0  0  0
    0.0000    0.0000    0.0000 S   0  0  0  0  0  0  0  0  0  0  0  0
  1  2  1  0
  2  3  2  0
  2  4  2  0
  2  5  1  0
  5  6  2  0
  6  7  1  0
  7  8  2  0
  8  9  1  0
  9 10  1  0
 10 11  1  0
 11 12  1  0
  8 13  1  0
 13  5  1  0
M  END
>  <pIC50>  (141) 
7.52

>  <ChEMBL_ID>  (141) 
CHEMBL318951

>  <document_journal>  (141) 
J. Med. Chem.

>  <bao_endpoint>  (141) 
BAO_0000190

>  <potential_duplicate>  (141) 
False

>  <uo_units>  (141) 
UO_0000065

>  <canonical_smiles>  (141) 
NS(=O)(=O)c1ccc(SCCO)s1

>  <parent_molecule_chembl_id>  (141) 
CHEMBL318951

>  <assay_type>  (141) 
F

>  <src_id>  (141) 
1

>  <ligand_efficiency>  (141) 
None

>  <standard_flag>  (141) 
True

>  <molecule_chembl_id>  (141) 
CHEMBL318951

>  <target_organism>  (141) 
Homo sapiens

>  <standard_units>  (141) 
nM

>  <record_id>  (141) 
197017

>  <document_chembl_id>  (141) 
CHEMBL1125912

>  <bao_format>  (141) 
BAO_0000019

>  <data_validity_description>  (141) 
None

>  <activity_id>  (141) 
205468

>  <standard_type>  (141) 
IC50

>  <target_chembl_id>  (141) 
CHEMBL205

>  <data_validity_comment>  (141) 
None

>  <published_value>  (141) 
30

>  <document_year>  (141) 
1991

>  <target_pref_name>  (141) 
Carbonic anhydrase II

>  <assay_chembl_id>  (141) 
CHEMBL694391

>  <standard_relation>  (141) 
=

>  <assay_description>  (141) 
Inhibitory activity against human carbonic anhydrase II using pH stat assay

>  <published_relation>  (141) 
=

>  <standard_value>  (141) 
30

>  <qudt_units>  (141) 
http://www.openphacts.org/units/Nanomolar

>  <target_tax_id>  (141) 
9606

>  <bao_label>  (141) 
assay format

>  <published_units>  (141) 
nM

>  <pchembl_value>  (141) 
7.52

>  <published_type>  (141) 
I50

>  <activity_comment>  (141) 
None

$$$$

     RDKit          

 14 15  0  0  0  0  0  0  0  0999 V2000
    0.0000    0.0000    0.0000 N   0  0  0  0  0  0  0  0  0  0  0  0
    0.0000    0.0000    0.0000 S   0  0  0  0  0  0  0  0  0  0  0  0
    0.0000    0.0000    0.0000 O   0  0  0  0  0  0  0  0  0  0  0  0
    0.0000    0.0000    0.0000 O   0  0  0  0  0  0  0  0  0  0  0  0
    0.0000    0.0000    0.0000 C   0  0  0  0  0  0  0  0  0  0  0  0
    0.0000    0.0000    0.0000 O   0  0  0  0  0  0  0  0  0  0  0  0
    0.0000    0.0000    0.0000 C   0  0  0  0  0  0  0  0  0  0  0  0
    0.0000    0.0000    0.0000 C   0  0  0  0  0  0  0  0  0  0  0  0
    0.0000    0.0000    0.0000 C   0  0  0  0  0  0  0  0  0  0  0  0
    0.0000    0.0000    0.0000 C   0  0  0  0  0  0  0  0  0  0  0  0
    0.0000    0.0000    0.0000 O   0  0  0  0  0  0  0  0  0  0  0  0
    0.0000    0.0000    0.0000 C   0  0  0  0  0  0  0  0  0  0  0  0
    0.0000    0.0000    0.0000 C   0  0  0  0  0  0  0  0  0  0  0  0
    0.0000    0.0000    0.0000 C   0  0  0  0  0  0  0  0  0  0  0  0
  1  2  1  0
  2  3  2  0
  2  4  2  0
  2  5  1  0
  5  6  1  0
  6  7  1  0
  7  8  2  0
  8  9  1  0
  9 10  2  0
 10 11  1  0
 10 12  1  0
 12 13  2  0
 13 14  1  0
 14  5  2  0
 13  7  1  0
M  END
>  <pIC50>  (142) 
8.19

>  <ChEMBL_ID>  (142) 
CHEMBL349815

>  <document_journal>  (142) 
J. Med. Chem.

>  <bao_endpoint>  (142) 
BAO_0000190

>  <potential_duplicate>  (142) 
False

>  <uo_units>  (142) 
UO_0000065

>  <canonical_smiles>  (142) 
NS(=O)(=O)c1oc2ccc(O)cc2c1

>  <parent_molecule_chembl_id>  (142) 
CHEMBL349815

>  <assay_type>  (142) 
B

>  <src_id>  (142) 
1

>  <ligand_efficiency>  (142) 
{u'le': u'0.8', u'bei': u'38.4', u'sei': u'8.03', u'lle': u'7.47'}

>  <standard_flag>  (142) 
True

>  <molecule_chembl_id>  (142) 
CHEMBL349815

>  <target_organism>  (142) 
Homo sapiens

>  <standard_units>  (142) 
nM

>  <record_id>  (142) 
322579

>  <document_chembl_id>  (142) 
CHEMBL1124833

>  <bao_format>  (142) 
BAO_0000357

>  <data_validity_description>  (142) 
None

>  <activity_id>  (142) 
206634

>  <standard_type>  (142) 
IC50

>  <target_chembl_id>  (142) 
CHEMBL205

>  <data_validity_comment>  (142) 
None

>  <published_value>  (142) 
6.5

>  <document_year>  (142) 
1990

>  <target_pref_name>  (142) 
Carbonic anhydrase II

>  <assay_chembl_id>  (142) 
CHEMBL656576

>  <standard_relation>  (142) 
=

>  <assay_description>  (142) 
In vitro inhibition of human carbonic anhydrase II (0.1 nM).

>  <published_relation>  (142) 
=

>  <standard_value>  (142) 
6.5

>  <qudt_units>  (142) 
http://www.openphacts.org/units/Nanomolar

>  <target_tax_id>  (142) 
9606

>  <bao_label>  (142) 
single protein format

>  <published_units>  (142) 
nM

>  <pchembl_value>  (142) 
8.19

>  <published_type>  (142) 
I50

>  <activity_comment>  (142) 
None

$$$$

     RDKit          

 14 15  0  0  0  0  0  0  0  0999 V2000
    0.0000    0.0000    0.0000 N   0  0  0  0  0  0  0  0  0  0  0  0
    0.0000    0.0000    0.0000 S   0  0  0  0  0  0  0  0  0  0  0  0
    0.0000    0.0000    0.0000 O   0  0  0  0  0  0  0  0  0  0  0  0
    0.0000    0.0000    0.0000 O   0  0  0  0  0  0  0  0  0  0  0  0
    0.0000    0.0000    0.0000 C   0  0  0  0  0  0  0  0  0  0  0  0
    0.0000    0.0000    0.0000 C   0  0  0  0  0  0  0  0  0  0  0  0
    0.0000    0.0000    0.0000 C   0  0  0  0  0  0  0  0  0  0  0  0
    0.0000    0.0000    0.0000 C   0  0  0  0  0  0  0  0  0  0  0  0
    0.0000    0.0000    0.0000 C   0  0  0  0  0  0  0  0  0  0  0  0
    0.0000    0.0000    0.0000 C   0  0  0  0  0  0  0  0  0  0  0  0
    0.0000    0.0000    0.0000 O   0  0  0  0  0  0  0  0  0  0  0  0
    0.0000    0.0000    0.0000 C   0  0  0  0  0  0  0  0  0  0  0  0
    0.0000    0.0000    0.0000 C   0  0  0  0  0  0  0  0  0  0  0  0
    0.0000    0.0000    0.0000 S   0  0  0  0  0  0  0  0  0  0  0  0
  1  2  1  0
  2  3  2  0
  2  4  2  0
  2  5  1  0
  5  6  2  0
  6  7  1  0
  7  8  2  0
  8  9  1  0
  9 10  2  0
 10 11  1  0
 10 12  1  0
 12 13  2  0
 13 14  1  0
 14  5  1  0
 13  7  1  0
M  END
>  <pIC50>  (143) 
8.03

>  <ChEMBL_ID>  (143) 
CHEMBL314803

>  <document_journal>  (143) 
J. Med. Chem.

>  <bao_endpoint>  (143) 
BAO_0000190

>  <potential_duplicate>  (143) 
False

>  <uo_units>  (143) 
UO_0000065

>  <canonical_smiles>  (143) 
NS(=O)(=O)c1cc2ccc(O)cc2s1

>  <parent_molecule_chembl_id>  (143) 
CHEMBL314803

>  <assay_type>  (143) 
B

>  <src_id>  (143) 
1

>  <ligand_efficiency>  (143) 
{u'le': u'0.78', u'bei': u'34.91', u'sei': u'6.84', u'lle': u'6.72'}

>  <standard_flag>  (143) 
True

>  <molecule_chembl_id>  (143) 
CHEMBL314803

>  <target_organism>  (143) 
Homo sapiens

>  <standard_units>  (143) 
nM

>  <record_id>  (143) 
322573

>  <document_chembl_id>  (143) 
CHEMBL1124833

>  <bao_format>  (143) 
BAO_0000357

>  <data_validity_description>  (143) 
None

>  <activity_id>  (143) 
206641

>  <standard_type>  (143) 
IC50

>  <target_chembl_id>  (143) 
CHEMBL205

>  <data_validity_comment>  (143) 
None

>  <published_value>  (143) 
9.9

>  <document_year>  (143) 
1990

>  <target_pref_name>  (143) 
Carbonic anhydrase II

>  <assay_chembl_id>  (143) 
CHEMBL656576

>  <standard_relation>  (143) 
=

>  <assay_description>  (143) 
In vitro inhibition of human carbonic anhydrase II (0.1 nM).

>  <published_relation>  (143) 
=

>  <standard_value>  (143) 
9.9

>  <qudt_units>  (143) 
http://www.openphacts.org/units/Nanomolar

>  <target_tax_id>  (143) 
9606

>  <bao_label>  (143) 
single protein format

>  <published_units>  (143) 
nM

>  <pchembl_value>  (143) 
8

>  <published_type>  (143) 
I50

>  <activity_comment>  (143) 
None

$$$$

     RDKit          

 17 17  0  0  0  0  0  0  0  0999 V2000
    0.0000    0.0000    0.0000 N   0  0  0  0  0  0  0  0  0  0  0  0
    0.0000    0.0000    0.0000 S   0  0  0  0  0  0  0  0  0  0  0  0
    0.0000    0.0000    0.0000 O   0  0  0  0  0  0  0  0  0  0  0  0
    0.0000    0.0000    0.0000 O   0  0  0  0  0  0  0  0  0  0  0  0
    0.0000    0.0000    0.0000 C   0  0  0  0  0  0  0  0  0  0  0  0
    0.0000    0.0000    0.0000 C   0  0  0  0  0  0  0  0  0  0  0  0
    0.0000    0.0000    0.0000 C   0  0  0  0  0  0  0  0  0  0  0  0
    0.0000    0.0000    0.0000 C   0  0  0  0  0  0  0  0  0  0  0  0
    0.0000    0.0000    0.0000 C   0  0  0  0  0  0  0  0  0  0  0  0
    0.0000    0.0000    0.0000 C   0  0  0  0  0  0  0  0  0  0  0  0
    0.0000    0.0000    0.0000 S   0  0  0  0  0  0  0  0  0  0  0  0
    0.0000    0.0000    0.0000 O   0  0  0  0  0  0  0  0  0  0  0  0
    0.0000    0.0000    0.0000 O   0  0  0  0  0  0  0  0  0  0  0  0
    0.0000    0.0000    0.0000 C   0  0  0  0  0  0  0  0  0  0  0  0
    0.0000    0.0000    0.0000 C   0  0  0  0  0  0  0  0  0  0  0  0
    0.0000    0.0000    0.0000 C   0  0  0  0  0  0  0  0  0  0  0  0
    0.0000    0.0000    0.0000 O   0  0  0  0  0  0  0  0  0  0  0  0
  1  2  1  0
  2  3  2  0
  2  4  2  0
  2  5  1  0
  5  6  2  0
  6  7  1  0
  7  8  2  0
  8  9  1  0
  9 10  2  0
  8 11  1  0
 11 12  2  0
 11 13  2  0
 11 14  1  0
 14 15  1  0
 15 16  1  0
 16 17  1  0
 10  5  1  0
M  END
>  <pIC50>  (144) 
7.92

>  <ChEMBL_ID>  (144) 
CHEMBL104000

>  <document_journal>  (144) 
J. Med. Chem.

>  <bao_endpoint>  (144) 
BAO_0000190

>  <potential_duplicate>  (144) 
False

>  <uo_units>  (144) 
UO_0000065

>  <canonical_smiles>  (144) 
NS(=O)(=O)c1ccc(cc1)S(=O)(=O)CCCO

>  <parent_molecule_chembl_id>  (144) 
CHEMBL104000

>  <assay_type>  (144) 
F

>  <src_id>  (144) 
1

>  <ligand_efficiency>  (144) 
None

>  <standard_flag>  (144) 
True

>  <molecule_chembl_id>  (144) 
CHEMBL104000

>  <target_organism>  (144) 
Homo sapiens

>  <standard_units>  (144) 
nM

>  <record_id>  (144) 
197037

>  <document_chembl_id>  (144) 
CHEMBL1125912

>  <bao_format>  (144) 
BAO_0000019

>  <data_validity_description>  (144) 
None

>  <activity_id>  (144) 
206729

>  <standard_type>  (144) 
IC50

>  <target_chembl_id>  (144) 
CHEMBL205

>  <data_validity_comment>  (144) 
None

>  <published_value>  (144) 
12

>  <document_year>  (144) 
1991

>  <target_pref_name>  (144) 
Carbonic anhydrase II

>  <assay_chembl_id>  (144) 
CHEMBL694391

>  <standard_relation>  (144) 
=

>  <assay_description>  (144) 
Inhibitory activity against human carbonic anhydrase II using pH stat assay

>  <published_relation>  (144) 
=

>  <standard_value>  (144) 
12

>  <qudt_units>  (144) 
http://www.openphacts.org/units/Nanomolar

>  <target_tax_id>  (144) 
9606

>  <bao_label>  (144) 
assay format

>  <published_units>  (144) 
nM

>  <pchembl_value>  (144) 
7.92

>  <published_type>  (144) 
I50

>  <activity_comment>  (144) 
None

$$$$

     RDKit          

 16 16  0  0  0  0  0  0  0  0999 V2000
    0.0000    0.0000    0.0000 N   0  0  0  0  0  0  0  0  0  0  0  0
    0.0000    0.0000    0.0000 S   0  0  0  0  0  0  0  0  0  0  0  0
    0.0000    0.0000    0.0000 O   0  0  0  0  0  0  0  0  0  0  0  0
    0.0000    0.0000    0.0000 O   0  0  0  0  0  0  0  0  0  0  0  0
    0.0000    0.0000    0.0000 C   0  0  0  0  0  0  0  0  0  0  0  0
    0.0000    0.0000    0.0000 C   0  0  0  0  0  0  0  0  0  0  0  0
    0.0000    0.0000    0.0000 C   0  0  0  0  0  0  0  0  0  0  0  0
    0.0000    0.0000    0.0000 C   0  0  0  0  0  0  0  0  0  0  0  0
    0.0000    0.0000    0.0000 S   0  0  0  0  0  0  0  0  0  0  0  0
    0.0000    0.0000    0.0000 S   0  0  0  0  0  0  0  0  0  0  0  0
    0.0000    0.0000    0.0000 O   0  0  0  0  0  0  0  0  0  0  0  0
    0.0000    0.0000    0.0000 O   0  0  0  0  0  0  0  0  0  0  0  0
    0.0000    0.0000    0.0000 C   0  0  0  0  0  0  0  0  0  0  0  0
    0.0000    0.0000    0.0000 C   0  0  0  0  0  0  0  0  0  0  0  0
    0.0000    0.0000    0.0000 C   0  0  0  0  0  0  0  0  0  0  0  0
    0.0000    0.0000    0.0000 O   0  0  0  0  0  0  0  0  0  0  0  0
  1  2  1  0
  2  3  2  0
  2  4  2  0
  2  5  1  0
  5  6  2  0
  6  7  1  0
  7  8  2  0
  8  9  1  0
  8 10  1  0
 10 11  2  0
 10 12  2  0
 10 13  1  0
 13 14  1  0
 14 15  1  0
 15 16  1  0
  9  5  1  0
M  END
>  <pIC50>  (145) 
8.22

>  <ChEMBL_ID>  (145) 
CHEMBL105725

>  <document_journal>  (145) 
J. Med. Chem.

>  <bao_endpoint>  (145) 
BAO_0000190

>  <potential_duplicate>  (145) 
False

>  <uo_units>  (145) 
UO_0000065

>  <canonical_smiles>  (145) 
NS(=O)(=O)c1ccc(s1)S(=O)(=O)CCCO

>  <parent_molecule_chembl_id>  (145) 
CHEMBL105725

>  <assay_type>  (145) 
F

>  <src_id>  (145) 
1

>  <ligand_efficiency>  (145) 
None

>  <standard_flag>  (145) 
True

>  <molecule_chembl_id>  (145) 
CHEMBL105725

>  <target_organism>  (145) 
Homo sapiens

>  <standard_units>  (145) 
nM

>  <record_id>  (145) 
197031

>  <document_chembl_id>  (145) 
CHEMBL1125912

>  <bao_format>  (145) 
BAO_0000019

>  <data_validity_description>  (145) 
None

>  <activity_id>  (145) 
206740

>  <standard_type>  (145) 
IC50

>  <target_chembl_id>  (145) 
CHEMBL205

>  <data_validity_comment>  (145) 
None

>  <published_value>  (145) 
6

>  <document_year>  (145) 
1991

>  <target_pref_name>  (145) 
Carbonic anhydrase II

>  <assay_chembl_id>  (145) 
CHEMBL694391

>  <standard_relation>  (145) 
=

>  <assay_description>  (145) 
Inhibitory activity against human carbonic anhydrase II using pH stat assay

>  <published_relation>  (145) 
=

>  <standard_value>  (145) 
6

>  <qudt_units>  (145) 
http://www.openphacts.org/units/Nanomolar

>  <target_tax_id>  (145) 
9606

>  <bao_label>  (145) 
assay format

>  <published_units>  (145) 
nM

>  <pchembl_value>  (145) 
8.22

>  <published_type>  (145) 
I50

>  <activity_comment>  (145) 
None

$$$$

     RDKit          

 20 21  0  0  0  0  0  0  0  0999 V2000
    0.0000    0.0000    0.0000 C   0  0  0  0  0  0  0  0  0  0  0  0
    0.0000    0.0000    0.0000 C   0  0  0  0  0  0  0  0  0  0  0  0
    0.0000    0.0000    0.0000 C   0  0  0  0  0  0  0  0  0  0  0  0
    0.0000    0.0000    0.0000 C   0  0  0  0  0  0  0  0  0  0  0  0
    0.0000    0.0000    0.0000 C   0  0  0  0  0  0  0  0  0  0  0  0
    0.0000    0.0000    0.0000 O   0  0  0  0  0  0  0  0  0  0  0  0
    0.0000    0.0000    0.0000 O   0  0  0  0  0  0  0  0  0  0  0  0
    0.0000    0.0000    0.0000 C   0  0  0  0  0  0  0  0  0  0  0  0
    0.0000    0.0000    0.0000 C   0  0  0  0  0  0  0  0  0  0  0  0
    0.0000    0.0000    0.0000 C   0  0  0  0  0  0  0  0  0  0  0  0
    0.0000    0.0000    0.0000 C   0  0  0  0  0  0  0  0  0  0  0  0
    0.0000    0.0000    0.0000 O   0  0  0  0  0  0  0  0  0  0  0  0
    0.0000    0.0000    0.0000 C   0  0  0  0  0  0  0  0  0  0  0  0
    0.0000    0.0000    0.0000 C   0  0  0  0  0  0  0  0  0  0  0  0
    0.0000    0.0000    0.0000 C   0  0  0  0  0  0  0  0  0  0  0  0
    0.0000    0.0000    0.0000 C   0  0  0  0  0  0  0  0  0  0  0  0
    0.0000    0.0000    0.0000 S   0  0  0  0  0  0  0  0  0  0  0  0
    0.0000    0.0000    0.0000 O   0  0  0  0  0  0  0  0  0  0  0  0
    0.0000    0.0000    0.0000 O   0  0  0  0  0  0  0  0  0  0  0  0
    0.0000    0.0000    0.0000 N   0  0  0  0  0  0  0  0  0  0  0  0
  1  2  1  0
  2  3  1  0
  2  4  1  0
  2  5  1  0
  5  6  2  0
  5  7  1  0
  7  8  1  0
  8  9  2  0
  9 10  1  0
 10 11  2  0
 11 12  1  0
 12 13  1  0
 13 14  2  0
 14 15  1  0
 15 16  2  0
 13 17  1  0
 17 18  2  0
 17 19  2  0
 17 20  1  0
 16  8  1  0
 15 11  1  0
M  END
>  <pIC50>  (146) 
8.52

>  <ChEMBL_ID>  (146) 
CHEMBL352281

>  <document_journal>  (146) 
J. Med. Chem.

>  <bao_endpoint>  (146) 
BAO_0000190

>  <potential_duplicate>  (146) 
False

>  <uo_units>  (146) 
UO_0000065

>  <canonical_smiles>  (146) 
CC(C)(C)C(=O)Oc1ccc2oc(cc2c1)S(=O)(=O)N

>  <parent_molecule_chembl_id>  (146) 
CHEMBL352281

>  <assay_type>  (146) 
B

>  <src_id>  (146) 
1

>  <ligand_efficiency>  (146) 
{u'le': u'0.58', u'bei': u'28.66', u'sei': u'7.89', u'lle': u'6.24'}

>  <standard_flag>  (146) 
True

>  <molecule_chembl_id>  (146) 
CHEMBL352281

>  <target_organism>  (146) 
Homo sapiens

>  <standard_units>  (146) 
nM

>  <record_id>  (146) 
322582

>  <document_chembl_id>  (146) 
CHEMBL1124833

>  <bao_format>  (146) 
BAO_0000357

>  <data_validity_description>  (146) 
None

>  <activity_id>  (146) 
207801

>  <standard_type>  (146) 
IC50

>  <target_chembl_id>  (146) 
CHEMBL205

>  <data_validity_comment>  (146) 
None

>  <published_value>  (146) 
3

>  <document_year>  (146) 
1990

>  <target_pref_name>  (146) 
Carbonic anhydrase II

>  <assay_chembl_id>  (146) 
CHEMBL656576

>  <standard_relation>  (146) 
=

>  <assay_description>  (146) 
In vitro inhibition of human carbonic anhydrase II (0.1 nM).

>  <published_relation>  (146) 
=

>  <standard_value>  (146) 
3

>  <qudt_units>  (146) 
http://www.openphacts.org/units/Nanomolar

>  <target_tax_id>  (146) 
9606

>  <bao_label>  (146) 
single protein format

>  <published_units>  (146) 
nM

>  <pchembl_value>  (146) 
8.52

>  <published_type>  (146) 
I50

>  <activity_comment>  (146) 
None

$$$$

     RDKit          

 17 17  0  0  0  0  0  0  0  0999 V2000
    0.0000    0.0000    0.0000 C   0  0  0  0  0  0  0  0  0  0  0  0
    0.0000    0.0000    0.0000 C   0  0  0  0  0  0  0  0  0  0  0  0
    0.0000    0.0000    0.0000 C   0  0  0  0  0  0  0  0  0  0  0  0
    0.0000    0.0000    0.0000 O   0  0  0  0  0  0  0  0  0  0  0  0
    0.0000    0.0000    0.0000 C   0  0  0  0  0  0  0  0  0  0  0  0
    0.0000    0.0000    0.0000 C   0  0  0  0  0  0  0  0  0  0  0  0
    0.0000    0.0000    0.0000 S   0  0  0  0  0  0  0  0  0  0  0  0
    0.0000    0.0000    0.0000 C   0  0  0  0  0  0  0  0  0  0  0  0
    0.0000    0.0000    0.0000 C   0  0  0  0  0  0  0  0  0  0  0  0
    0.0000    0.0000    0.0000 C   0  0  0  0  0  0  0  0  0  0  0  0
    0.0000    0.0000    0.0000 C   0  0  0  0  0  0  0  0  0  0  0  0
    0.0000    0.0000    0.0000 C   0  0  0  0  0  0  0  0  0  0  0  0
    0.0000    0.0000    0.0000 C   0  0  0  0  0  0  0  0  0  0  0  0
    0.0000    0.0000    0.0000 S   0  0  0  0  0  0  0  0  0  0  0  0
    0.0000    0.0000    0.0000 O   0  0  0  0  0  0  0  0  0  0  0  0
    0.0000    0.0000    0.0000 O   0  0  0  0  0  0  0  0  0  0  0  0
    0.0000    0.0000    0.0000 N   0  0  0  0  0  0  0  0  0  0  0  0
  1  2  1  0
  2  3  1  0
  2  4  1  0
  2  5  1  0
  5  6  1  0
  6  7  1  0
  7  8  1  0
  8  9  2  0
  9 10  1  0
 10 11  2  0
 11 12  1  0
 12 13  2  0
 11 14  1  0
 14 15  2  0
 14 16  2  0
 14 17  1  0
 13  8  1  0
M  END
>  <pIC50>  (147) 
7.7

>  <ChEMBL_ID>  (147) 
CHEMBL321889

>  <document_journal>  (147) 
J. Med. Chem.

>  <bao_endpoint>  (147) 
BAO_0000190

>  <potential_duplicate>  (147) 
False

>  <uo_units>  (147) 
UO_0000065

>  <canonical_smiles>  (147) 
CC(C)(O)CCSc1ccc(cc1)S(=O)(=O)N

>  <parent_molecule_chembl_id>  (147) 
CHEMBL321889

>  <assay_type>  (147) 
F

>  <src_id>  (147) 
1

>  <ligand_efficiency>  (147) 
None

>  <standard_flag>  (147) 
True

>  <molecule_chembl_id>  (147) 
CHEMBL321889

>  <target_organism>  (147) 
Homo sapiens

>  <standard_units>  (147) 
nM

>  <record_id>  (147) 
197036

>  <document_chembl_id>  (147) 
CHEMBL1125912

>  <bao_format>  (147) 
BAO_0000019

>  <data_validity_description>  (147) 
None

>  <activity_id>  (147) 
207844

>  <standard_type>  (147) 
IC50

>  <target_chembl_id>  (147) 
CHEMBL205

>  <data_validity_comment>  (147) 
None

>  <published_value>  (147) 
20

>  <document_year>  (147) 
1991

>  <target_pref_name>  (147) 
Carbonic anhydrase II

>  <assay_chembl_id>  (147) 
CHEMBL694391

>  <standard_relation>  (147) 
=

>  <assay_description>  (147) 
Inhibitory activity against human carbonic anhydrase II using pH stat assay

>  <published_relation>  (147) 
=

>  <standard_value>  (147) 
20

>  <qudt_units>  (147) 
http://www.openphacts.org/units/Nanomolar

>  <target_tax_id>  (147) 
9606

>  <bao_label>  (147) 
assay format

>  <published_units>  (147) 
nM

>  <pchembl_value>  (147) 
7.7

>  <published_type>  (147) 
I50

>  <activity_comment>  (147) 
None

$$$$

     RDKit          

 15 15  0  0  0  0  0  0  0  0999 V2000
    0.0000    0.0000    0.0000 N   0  0  0  0  0  0  0  0  0  0  0  0
    0.0000    0.0000    0.0000 S   0  0  0  0  0  0  0  0  0  0  0  0
    0.0000    0.0000    0.0000 O   0  0  0  0  0  0  0  0  0  0  0  0
    0.0000    0.0000    0.0000 O   0  0  0  0  0  0  0  0  0  0  0  0
    0.0000    0.0000    0.0000 C   0  0  0  0  0  0  0  0  0  0  0  0
    0.0000    0.0000    0.0000 C   0  0  0  0  0  0  0  0  0  0  0  0
    0.0000    0.0000    0.0000 C   0  0  0  0  0  0  0  0  0  0  0  0
    0.0000    0.0000    0.0000 C   0  0  0  0  0  0  0  0  0  0  0  0
    0.0000    0.0000    0.0000 S   0  0  0  0  0  0  0  0  0  0  0  0
    0.0000    0.0000    0.0000 C   0  0  0  0  0  0  0  0  0  0  0  0
    0.0000    0.0000    0.0000 C   0  0  0  0  0  0  0  0  0  0  0  0
    0.0000    0.0000    0.0000 C   0  0  0  0  0  0  0  0  0  0  0  0
    0.0000    0.0000    0.0000 O   0  0  0  0  0  0  0  0  0  0  0  0
    0.0000    0.0000    0.0000 C   0  0  0  0  0  0  0  0  0  0  0  0
    0.0000    0.0000    0.0000 C   0  0  0  0  0  0  0  0  0  0  0  0
  1  2  1  0
  2  3  2  0
  2  4  2  0
  2  5  1  0
  5  6  2  0
  6  7  1  0
  7  8  2  0
  8  9  1  0
  9 10  1  0
 10 11  1  0
 11 12  1  0
 12 13  1  0
  8 14  1  0
 14 15  2  0
 15  5  1  0
M  END
>  <pIC50>  (148) 
7.7

>  <ChEMBL_ID>  (148) 
CHEMBL104311

>  <document_journal>  (148) 
J. Med. Chem.

>  <bao_endpoint>  (148) 
BAO_0000190

>  <potential_duplicate>  (148) 
False

>  <uo_units>  (148) 
UO_0000065

>  <canonical_smiles>  (148) 
NS(=O)(=O)c1ccc(SCCCO)cc1

>  <parent_molecule_chembl_id>  (148) 
CHEMBL104311

>  <assay_type>  (148) 
F

>  <src_id>  (148) 
1

>  <ligand_efficiency>  (148) 
None

>  <standard_flag>  (148) 
True

>  <molecule_chembl_id>  (148) 
CHEMBL104311

>  <target_organism>  (148) 
Homo sapiens

>  <standard_units>  (148) 
nM

>  <record_id>  (148) 
197039

>  <document_chembl_id>  (148) 
CHEMBL1125912

>  <bao_format>  (148) 
BAO_0000019

>  <data_validity_description>  (148) 
None

>  <activity_id>  (148) 
209033

>  <standard_type>  (148) 
IC50

>  <target_chembl_id>  (148) 
CHEMBL205

>  <data_validity_comment>  (148) 
None

>  <published_value>  (148) 
20

>  <document_year>  (148) 
1991

>  <target_pref_name>  (148) 
Carbonic anhydrase II

>  <assay_chembl_id>  (148) 
CHEMBL694391

>  <standard_relation>  (148) 
=

>  <assay_description>  (148) 
Inhibitory activity against human carbonic anhydrase II using pH stat assay

>  <published_relation>  (148) 
=

>  <standard_value>  (148) 
20

>  <qudt_units>  (148) 
http://www.openphacts.org/units/Nanomolar

>  <target_tax_id>  (148) 
9606

>  <bao_label>  (148) 
assay format

>  <published_units>  (148) 
nM

>  <pchembl_value>  (148) 
7.7

>  <published_type>  (148) 
I50

>  <activity_comment>  (148) 
None

$$$$

     RDKit          

 19 19  0  0  0  0  0  0  0  0999 V2000
    0.0000    0.0000    0.0000 C   0  0  0  0  0  0  0  0  0  0  0  0
    0.0000    0.0000    0.0000 C   0  0  0  0  0  0  0  0  0  0  0  0
    0.0000    0.0000    0.0000 O   0  0  0  0  0  0  0  0  0  0  0  0
    0.0000    0.0000    0.0000 O   0  0  0  0  0  0  0  0  0  0  0  0
    0.0000    0.0000    0.0000 C   0  0  0  0  0  0  0  0  0  0  0  0
    0.0000    0.0000    0.0000 C   0  0  0  0  0  0  0  0  0  0  0  0
    0.0000    0.0000    0.0000 C   0  0  0  0  0  0  0  0  0  0  0  0
    0.0000    0.0000    0.0000 S   0  0  0  0  0  0  0  0  0  0  0  0
    0.0000    0.0000    0.0000 O   0  0  0  0  0  0  0  0  0  0  0  0
    0.0000    0.0000    0.0000 O   0  0  0  0  0  0  0  0  0  0  0  0
    0.0000    0.0000    0.0000 C   0  0  0  0  0  0  0  0  0  0  0  0
    0.0000    0.0000    0.0000 C   0  0  0  0  0  0  0  0  0  0  0  0
    0.0000    0.0000    0.0000 C   0  0  0  0  0  0  0  0  0  0  0  0
    0.0000    0.0000    0.0000 C   0  0  0  0  0  0  0  0  0  0  0  0
    0.0000    0.0000    0.0000 S   0  0  0  0  0  0  0  0  0  0  0  0
    0.0000    0.0000    0.0000 S   0  0  0  0  0  0  0  0  0  0  0  0
    0.0000    0.0000    0.0000 O   0  0  0  0  0  0  0  0  0  0  0  0
    0.0000    0.0000    0.0000 O   0  0  0  0  0  0  0  0  0  0  0  0
    0.0000    0.0000    0.0000 N   0  0  0  0  0  0  0  0  0  0  0  0
  1  2  1  0
  2  3  2  0
  2  4  1  0
  4  5  1  0
  5  6  1  0
  6  7  1  0
  7  8  1  0
  8  9  2  0
  8 10  2  0
  8 11  1  0
 11 12  2  0
 12 13  1  0
 13 14  2  0
 14 15  1  0
 14 16  1  0
 16 17  2  0
 16 18  2  0
 16 19  1  0
 15 11  1  0
M  END
>  <pIC50>  (149) 
8.3

>  <ChEMBL_ID>  (149) 
CHEMBL104666

>  <document_journal>  (149) 
J. Med. Chem.

>  <bao_endpoint>  (149) 
BAO_0000190

>  <potential_duplicate>  (149) 
False

>  <uo_units>  (149) 
UO_0000065

>  <canonical_smiles>  (149) 
CC(=O)OCCCS(=O)(=O)c1ccc(s1)S(=O)(=O)N

>  <parent_molecule_chembl_id>  (149) 
CHEMBL104666

>  <assay_type>  (149) 
F

>  <src_id>  (149) 
1

>  <ligand_efficiency>  (149) 
None

>  <standard_flag>  (149) 
True

>  <molecule_chembl_id>  (149) 
CHEMBL104666

>  <target_organism>  (149) 
Homo sapiens

>  <standard_units>  (149) 
nM

>  <record_id>  (149) 
197030

>  <document_chembl_id>  (149) 
CHEMBL1125912

>  <bao_format>  (149) 
BAO_0000019

>  <data_validity_description>  (149) 
None

>  <activity_id>  (149) 
209037

>  <standard_type>  (149) 
IC50

>  <target_chembl_id>  (149) 
CHEMBL205

>  <data_validity_comment>  (149) 
None

>  <published_value>  (149) 
5

>  <document_year>  (149) 
1991

>  <target_pref_name>  (149) 
Carbonic anhydrase II

>  <assay_chembl_id>  (149) 
CHEMBL694391

>  <standard_relation>  (149) 
=

>  <assay_description>  (149) 
Inhibitory activity against human carbonic anhydrase II using pH stat assay

>  <published_relation>  (149) 
=

>  <standard_value>  (149) 
5

>  <qudt_units>  (149) 
http://www.openphacts.org/units/Nanomolar

>  <target_tax_id>  (149) 
9606

>  <bao_label>  (149) 
assay format

>  <published_units>  (149) 
nM

>  <pchembl_value>  (149) 
8.3

>  <published_type>  (149) 
I50

>  <activity_comment>  (149) 
None

$$$$

     RDKit          

 16 17  0  0  0  0  0  0  0  0999 V2000
    0.0000    0.0000    0.0000 N   0  0  0  0  0  0  0  0  0  0  0  0
    0.0000    0.0000    0.0000 S   0  0  0  0  0  0  0  0  0  0  0  0
    0.0000    0.0000    0.0000 O   0  0  0  0  0  0  0  0  0  0  0  0
    0.0000    0.0000    0.0000 O   0  0  0  0  0  0  0  0  0  0  0  0
    0.0000    0.0000    0.0000 C   0  0  0  0  0  0  0  0  0  0  0  0
    0.0000    0.0000    0.0000 C   0  0  0  0  0  0  0  0  0  0  0  0
    0.0000    0.0000    0.0000 C   0  0  0  0  0  0  0  0  0  0  0  0
    0.0000    0.0000    0.0000 C   0  0  0  0  0  0  0  0  0  0  0  0
    0.0000    0.0000    0.0000 O   0  0  0  0  0  0  0  0  0  0  0  0
    0.0000    0.0000    0.0000 C   0  0  0  0  0  0  0  0  0  0  0  0
    0.0000    0.0000    0.0000 C   0  0  0  0  0  0  0  0  0  0  0  0
    0.0000    0.0000    0.0000 S   0  0  0  0  0  0  0  0  0  0  0  0
    0.0000    0.0000    0.0000 O   0  0  0  0  0  0  0  0  0  0  0  0
    0.0000    0.0000    0.0000 O   0  0  0  0  0  0  0  0  0  0  0  0
    0.0000    0.0000    0.0000 C   0  0  0  0  0  0  0  0  0  0  0  0
    0.0000    0.0000    0.0000 S   0  0  0  0  0  0  0  0  0  0  0  0
  1  2  1  0
  2  3  2  0
  2  4  2  0
  2  5  1  0
  5  6  2  0
  6  7  1  0
  7  8  1  0
  8  9  1  0
  8 10  1  0
 10 11  1  0
 11 12  1  0
 12 13  2  0
 12 14  2  0
 12 15  1  0
 15 16  1  0
 16  5  1  0
 15  7  2  0
M  END
>  <pIC50>  (150) 
8.175

>  <ChEMBL_ID>  (150) 
CHEMBL314569

>  <document_journal>  (150) 
J. Med. Chem.

>  <bao_endpoint>  (150) 
BAO_0000190

>  <potential_duplicate>  (150) 
True

>  <uo_units>  (150) 
UO_0000065

>  <canonical_smiles>  (150) 
NS(=O)(=O)c1cc2C(O)CCS(=O)(=O)c2s1

>  <parent_molecule_chembl_id>  (150) 
CHEMBL314569

>  <assay_type>  (150) 
F

>  <src_id>  (150) 
1

>  <ligand_efficiency>  (150) 
None

>  <standard_flag>  (150) 
True

>  <molecule_chembl_id>  (150) 
CHEMBL314569

>  <target_organism>  (150) 
Homo sapiens

>  <standard_units>  (150) 
nM

>  <record_id>  (150) 
196997

>  <document_chembl_id>  (150) 
CHEMBL1125912

>  <bao_format>  (150) 
BAO_0000019

>  <data_validity_description>  (150) 
None

>  <activity_id>  (150) 
209041

>  <standard_type>  (150) 
IC50

>  <target_chembl_id>  (150) 
CHEMBL205

>  <data_validity_comment>  (150) 
None

>  <published_value>  (150) 
13

>  <document_year>  (150) 
1991

>  <target_pref_name>  (150) 
Carbonic anhydrase II

>  <assay_chembl_id>  (150) 
CHEMBL694391

>  <standard_relation>  (150) 
=

>  <assay_description>  (150) 
Inhibitory activity against human carbonic anhydrase II using pH stat assay

>  <published_relation>  (150) 
=

>  <standard_value>  (150) 
13

>  <qudt_units>  (150) 
http://www.openphacts.org/units/Nanomolar

>  <target_tax_id>  (150) 
9606

>  <bao_label>  (150) 
assay format

>  <published_units>  (150) 
nM

>  <pchembl_value>  (150) 
7.89

>  <published_type>  (150) 
I50

>  <activity_comment>  (150) 
None

$$$$

     RDKit          

 20 20  0  0  0  0  0  0  0  0999 V2000
    0.0000    0.0000    0.0000 C   0  0  0  0  0  0  0  0  0  0  0  0
    0.0000    0.0000    0.0000 C   0  0  0  0  0  0  0  0  0  0  0  0
    0.0000    0.0000    0.0000 C   0  0  0  0  0  0  0  0  0  0  0  0
    0.0000    0.0000    0.0000 C   0  0  0  0  0  0  0  0  0  0  0  0
    0.0000    0.0000    0.0000 N   0  0  0  0  0  0  0  0  0  0  0  0
    0.0000    0.0000    0.0000 C   0  0  0  0  0  0  0  0  0  0  0  0
    0.0000    0.0000    0.0000 C   0  0  0  0  0  0  0  0  0  0  0  0
    0.0000    0.0000    0.0000 C   0  0  0  0  0  0  0  0  0  0  0  0
    0.0000    0.0000    0.0000 S   0  0  0  0  0  0  0  0  0  0  0  0
    0.0000    0.0000    0.0000 O   0  0  0  0  0  0  0  0  0  0  0  0
    0.0000    0.0000    0.0000 O   0  0  0  0  0  0  0  0  0  0  0  0
    0.0000    0.0000    0.0000 C   0  0  0  0  0  0  0  0  0  0  0  0
    0.0000    0.0000    0.0000 C   0  0  0  0  0  0  0  0  0  0  0  0
    0.0000    0.0000    0.0000 C   0  0  0  0  0  0  0  0  0  0  0  0
    0.0000    0.0000    0.0000 C   0  0  0  0  0  0  0  0  0  0  0  0
    0.0000    0.0000    0.0000 S   0  0  0  0  0  0  0  0  0  0  0  0
    0.0000    0.0000    0.0000 S   0  0  0  0  0  0  0  0  0  0  0  0
    0.0000    0.0000    0.0000 O   0  0  0  0  0  0  0  0  0  0  0  0
    0.0000    0.0000    0.0000 O   0  0  0  0  0  0  0  0  0  0  0  0
    0.0000    0.0000    0.0000 N   0  0  0  0  0  0  0  0  0  0  0  0
  1  2  1  0
  2  3  1  0
  2  4  1  0
  4  5  1  0
  5  6  1  0
  6  7  1  0
  7  8  1  0
  8  9  1  0
  9 10  2  0
  9 11  2  0
  9 12  1  0
 12 13  2  0
 13 14  1  0
 14 15  2  0
 15 16  1  0
 15 17  1  0
 17 18  2  0
 17 19  2  0
 17 20  1  0
 16 12  1  0
M  END
>  <pIC50>  (151) 
7.75

>  <ChEMBL_ID>  (151) 
CHEMBL104630

>  <document_journal>  (151) 
J. Med. Chem.

>  <bao_endpoint>  (151) 
BAO_0000190

>  <potential_duplicate>  (151) 
False

>  <uo_units>  (151) 
UO_0000065

>  <canonical_smiles>  (151) 
CC(C)CNCCCS(=O)(=O)c1ccc(s1)S(=O)(=O)N

>  <parent_molecule_chembl_id>  (151) 
CHEMBL104630

>  <assay_type>  (151) 
F

>  <src_id>  (151) 
1

>  <ligand_efficiency>  (151) 
None

>  <standard_flag>  (151) 
True

>  <molecule_chembl_id>  (151) 
CHEMBL104630

>  <target_organism>  (151) 
Homo sapiens

>  <standard_units>  (151) 
nM

>  <record_id>  (151) 
197025

>  <document_chembl_id>  (151) 
CHEMBL1125912

>  <bao_format>  (151) 
BAO_0000019

>  <data_validity_description>  (151) 
None

>  <activity_id>  (151) 
210268

>  <standard_type>  (151) 
IC50

>  <target_chembl_id>  (151) 
CHEMBL205

>  <data_validity_comment>  (151) 
None

>  <published_value>  (151) 
18

>  <document_year>  (151) 
1991

>  <target_pref_name>  (151) 
Carbonic anhydrase II

>  <assay_chembl_id>  (151) 
CHEMBL694391

>  <standard_relation>  (151) 
=

>  <assay_description>  (151) 
Inhibitory activity against human carbonic anhydrase II using pH stat assay

>  <published_relation>  (151) 
=

>  <standard_value>  (151) 
18

>  <qudt_units>  (151) 
http://www.openphacts.org/units/Nanomolar

>  <target_tax_id>  (151) 
9606

>  <bao_label>  (151) 
assay format

>  <published_units>  (151) 
nM

>  <pchembl_value>  (151) 
7.75

>  <published_type>  (151) 
I50

>  <activity_comment>  (151) 
None

$$$$

     RDKit          

 14 14  0  0  0  0  0  0  0  0999 V2000
    0.0000    0.0000    0.0000 N   0  0  0  0  0  0  0  0  0  0  0  0
    0.0000    0.0000    0.0000 S   0  0  0  0  0  0  0  0  0  0  0  0
    0.0000    0.0000    0.0000 O   0  0  0  0  0  0  0  0  0  0  0  0
    0.0000    0.0000    0.0000 O   0  0  0  0  0  0  0  0  0  0  0  0
    0.0000    0.0000    0.0000 C   0  0  0  0  0  0  0  0  0  0  0  0
    0.0000    0.0000    0.0000 C   0  0  0  0  0  0  0  0  0  0  0  0
    0.0000    0.0000    0.0000 C   0  0  0  0  0  0  0  0  0  0  0  0
    0.0000    0.0000    0.0000 C   0  0  0  0  0  0  0  0  0  0  0  0
    0.0000    0.0000    0.0000 S   0  0  0  0  0  0  0  0  0  0  0  0
    0.0000    0.0000    0.0000 C   0  0  0  0  0  0  0  0  0  0  0  0
    0.0000    0.0000    0.0000 C   0  0  0  0  0  0  0  0  0  0  0  0
    0.0000    0.0000    0.0000 C   0  0  0  0  0  0  0  0  0  0  0  0
    0.0000    0.0000    0.0000 O   0  0  0  0  0  0  0  0  0  0  0  0
    0.0000    0.0000    0.0000 S   0  0  0  0  0  0  0  0  0  0  0  0
  1  2  1  0
  2  3  2  0
  2  4  2  0
  2  5  1  0
  5  6  2  0
  6  7  1  0
  7  8  2  0
  8  9  1  0
  9 10  1  0
 10 11  1  0
 11 12  1  0
 12 13  1  0
  8 14  1  0
 14  5  1  0
M  END
>  <pIC50>  (152) 
8.0

>  <ChEMBL_ID>  (152) 
CHEMBL106683

>  <document_journal>  (152) 
J. Med. Chem.

>  <bao_endpoint>  (152) 
BAO_0000190

>  <potential_duplicate>  (152) 
False

>  <uo_units>  (152) 
UO_0000065

>  <canonical_smiles>  (152) 
NS(=O)(=O)c1ccc(SCCCO)s1

>  <parent_molecule_chembl_id>  (152) 
CHEMBL106683

>  <assay_type>  (152) 
F

>  <src_id>  (152) 
1

>  <ligand_efficiency>  (152) 
None

>  <standard_flag>  (152) 
True

>  <molecule_chembl_id>  (152) 
CHEMBL106683

>  <target_organism>  (152) 
Homo sapiens

>  <standard_units>  (152) 
nM

>  <record_id>  (152) 
197032

>  <document_chembl_id>  (152) 
CHEMBL1125912

>  <bao_format>  (152) 
BAO_0000019

>  <data_validity_description>  (152) 
None

>  <activity_id>  (152) 
212510

>  <standard_type>  (152) 
IC50

>  <target_chembl_id>  (152) 
CHEMBL205

>  <data_validity_comment>  (152) 
None

>  <published_value>  (152) 
10

>  <document_year>  (152) 
1991

>  <target_pref_name>  (152) 
Carbonic anhydrase II

>  <assay_chembl_id>  (152) 
CHEMBL694391

>  <standard_relation>  (152) 
=

>  <assay_description>  (152) 
Inhibitory activity against human carbonic anhydrase II using pH stat assay

>  <published_relation>  (152) 
=

>  <standard_value>  (152) 
10

>  <qudt_units>  (152) 
http://www.openphacts.org/units/Nanomolar

>  <target_tax_id>  (152) 
9606

>  <bao_label>  (152) 
assay format

>  <published_units>  (152) 
nM

>  <pchembl_value>  (152) 
8

>  <published_type>  (152) 
I50

>  <activity_comment>  (152) 
None

$$$$

     RDKit          

 13 14  0  0  0  0  0  0  0  0999 V2000
    0.0000    0.0000    0.0000 N   0  0  0  0  0  0  0  0  0  0  0  0
    0.0000    0.0000    0.0000 S   0  0  0  0  0  0  0  0  0  0  0  0
    0.0000    0.0000    0.0000 O   0  0  0  0  0  0  0  0  0  0  0  0
    0.0000    0.0000    0.0000 O   0  0  0  0  0  0  0  0  0  0  0  0
    0.0000    0.0000    0.0000 C   0  0  0  0  0  0  0  0  0  0  0  0
    0.0000    0.0000    0.0000 O   0  0  0  0  0  0  0  0  0  0  0  0
    0.0000    0.0000    0.0000 C   0  0  0  0  0  0  0  0  0  0  0  0
    0.0000    0.0000    0.0000 C   0  0  0  0  0  0  0  0  0  0  0  0
    0.0000    0.0000    0.0000 C   0  0  0  0  0  0  0  0  0  0  0  0
    0.0000    0.0000    0.0000 C   0  0  0  0  0  0  0  0  0  0  0  0
    0.0000    0.0000    0.0000 C   0  0  0  0  0  0  0  0  0  0  0  0
    0.0000    0.0000    0.0000 C   0  0  0  0  0  0  0  0  0  0  0  0
    0.0000    0.0000    0.0000 C   0  0  0  0  0  0  0  0  0  0  0  0
  1  2  1  0
  2  3  2  0
  2  4  2  0
  2  5  1  0
  5  6  1  0
  6  7  1  0
  7  8  2  0
  8  9  1  0
  9 10  2  0
 10 11  1  0
 11 12  2  0
 12 13  1  0
 13  5  2  0
 12  7  1  0
M  END
>  <pIC50>  (153) 
8.1

>  <ChEMBL_ID>  (153) 
CHEMBL165346

>  <document_journal>  (153) 
J. Med. Chem.

>  <bao_endpoint>  (153) 
BAO_0000190

>  <potential_duplicate>  (153) 
False

>  <uo_units>  (153) 
UO_0000065

>  <canonical_smiles>  (153) 
NS(=O)(=O)c1oc2ccccc2c1

>  <parent_molecule_chembl_id>  (153) 
CHEMBL165346

>  <assay_type>  (153) 
B

>  <src_id>  (153) 
1

>  <ligand_efficiency>  (153) 
{u'le': u'0.85', u'bei': u'41.06', u'sei': u'9.91', u'lle': u'7.14'}

>  <standard_flag>  (153) 
True

>  <molecule_chembl_id>  (153) 
CHEMBL165346

>  <target_organism>  (153) 
Homo sapiens

>  <standard_units>  (153) 
nM

>  <record_id>  (153) 
322562

>  <document_chembl_id>  (153) 
CHEMBL1124833

>  <bao_format>  (153) 
BAO_0000357

>  <data_validity_description>  (153) 
None

>  <activity_id>  (153) 
213689

>  <standard_type>  (153) 
IC50

>  <target_chembl_id>  (153) 
CHEMBL205

>  <data_validity_comment>  (153) 
None

>  <published_value>  (153) 
8

>  <document_year>  (153) 
1990

>  <target_pref_name>  (153) 
Carbonic anhydrase II

>  <assay_chembl_id>  (153) 
CHEMBL656576

>  <standard_relation>  (153) 
=

>  <assay_description>  (153) 
In vitro inhibition of human carbonic anhydrase II (0.1 nM).

>  <published_relation>  (153) 
=

>  <standard_value>  (153) 
8

>  <qudt_units>  (153) 
http://www.openphacts.org/units/Nanomolar

>  <target_tax_id>  (153) 
9606

>  <bao_label>  (153) 
single protein format

>  <published_units>  (153) 
nM

>  <pchembl_value>  (153) 
8.1

>  <published_type>  (153) 
I50

>  <activity_comment>  (153) 
None

$$$$

     RDKit          

 15 16  0  0  0  0  0  0  0  0999 V2000
    0.0000    0.0000    0.0000 C   0  0  0  0  0  0  0  0  0  0  0  0
    0.0000    0.0000    0.0000 O   0  0  0  0  0  0  0  0  0  0  0  0
    0.0000    0.0000    0.0000 C   0  0  0  0  0  0  0  0  0  0  0  0
    0.0000    0.0000    0.0000 C   0  0  0  0  0  0  0  0  0  0  0  0
    0.0000    0.0000    0.0000 C   0  0  0  0  0  0  0  0  0  0  0  0
    0.0000    0.0000    0.0000 C   0  0  0  0  0  0  0  0  0  0  0  0
    0.0000    0.0000    0.0000 N   0  0  0  0  0  0  0  0  0  0  0  0
    0.0000    0.0000    0.0000 C   0  0  0  0  0  0  0  0  0  0  0  0
    0.0000    0.0000    0.0000 C   0  0  0  0  0  0  0  0  0  0  0  0
    0.0000    0.0000    0.0000 C   0  0  0  0  0  0  0  0  0  0  0  0
    0.0000    0.0000    0.0000 C   0  0  0  0  0  0  0  0  0  0  0  0
    0.0000    0.0000    0.0000 S   0  0  0  0  0  0  0  0  0  0  0  0
    0.0000    0.0000    0.0000 O   0  0  0  0  0  0  0  0  0  0  0  0
    0.0000    0.0000    0.0000 O   0  0  0  0  0  0  0  0  0  0  0  0
    0.0000    0.0000    0.0000 N   0  0  0  0  0  0  0  0  0  0  0  0
  1  2  1  0
  2  3  1  0
  3  4  2  0
  4  5  1  0
  5  6  2  0
  6  7  1  0
  7  8  1  0
  8  9  2  0
  9 10  1  0
 10 11  2  0
  8 12  1  0
 12 13  2  0
 12 14  2  0
 12 15  1  0
 11  3  1  0
 10  6  1  0
M  END
>  <pIC50>  (154) 
7.8

>  <ChEMBL_ID>  (154) 
CHEMBL165362

>  <document_journal>  (154) 
J. Med. Chem.

>  <bao_endpoint>  (154) 
BAO_0000190

>  <potential_duplicate>  (154) 
False

>  <uo_units>  (154) 
UO_0000065

>  <canonical_smiles>  (154) 
COc1ccc2[nH]c(cc2c1)S(=O)(=O)N

>  <parent_molecule_chembl_id>  (154) 
CHEMBL165362

>  <assay_type>  (154) 
B

>  <src_id>  (154) 
1

>  <ligand_efficiency>  (154) 
{u'le': u'0.71', u'bei': u'34.46', u'sei': u'8.33', u'lle': u'6.86'}

>  <standard_flag>  (154) 
True

>  <molecule_chembl_id>  (154) 
CHEMBL165362

>  <target_organism>  (154) 
Homo sapiens

>  <standard_units>  (154) 
nM

>  <record_id>  (154) 
322565

>  <document_chembl_id>  (154) 
CHEMBL1124833

>  <bao_format>  (154) 
BAO_0000357

>  <data_validity_description>  (154) 
None

>  <activity_id>  (154) 
213693

>  <standard_type>  (154) 
IC50

>  <target_chembl_id>  (154) 
CHEMBL205

>  <data_validity_comment>  (154) 
None

>  <published_value>  (154) 
16

>  <document_year>  (154) 
1990

>  <target_pref_name>  (154) 
Carbonic anhydrase II

>  <assay_chembl_id>  (154) 
CHEMBL656576

>  <standard_relation>  (154) 
=

>  <assay_description>  (154) 
In vitro inhibition of human carbonic anhydrase II (0.1 nM).

>  <published_relation>  (154) 
=

>  <standard_value>  (154) 
16

>  <qudt_units>  (154) 
http://www.openphacts.org/units/Nanomolar

>  <target_tax_id>  (154) 
9606

>  <bao_label>  (154) 
single protein format

>  <published_units>  (154) 
nM

>  <pchembl_value>  (154) 
7.8

>  <published_type>  (154) 
I50

>  <activity_comment>  (154) 
None

$$$$

     RDKit          

 15 16  0  0  0  0  0  0  0  0999 V2000
    0.0000    0.0000    0.0000 C   0  0  0  0  0  0  0  0  0  0  0  0
    0.0000    0.0000    0.0000 O   0  0  0  0  0  0  0  0  0  0  0  0
    0.0000    0.0000    0.0000 C   0  0  0  0  0  0  0  0  0  0  0  0
    0.0000    0.0000    0.0000 C   0  0  0  0  0  0  0  0  0  0  0  0
    0.0000    0.0000    0.0000 C   0  0  0  0  0  0  0  0  0  0  0  0
    0.0000    0.0000    0.0000 C   0  0  0  0  0  0  0  0  0  0  0  0
    0.0000    0.0000    0.0000 O   0  0  0  0  0  0  0  0  0  0  0  0
    0.0000    0.0000    0.0000 C   0  0  0  0  0  0  0  0  0  0  0  0
    0.0000    0.0000    0.0000 C   0  0  0  0  0  0  0  0  0  0  0  0
    0.0000    0.0000    0.0000 C   0  0  0  0  0  0  0  0  0  0  0  0
    0.0000    0.0000    0.0000 C   0  0  0  0  0  0  0  0  0  0  0  0
    0.0000    0.0000    0.0000 S   0  0  0  0  0  0  0  0  0  0  0  0
    0.0000    0.0000    0.0000 O   0  0  0  0  0  0  0  0  0  0  0  0
    0.0000    0.0000    0.0000 O   0  0  0  0  0  0  0  0  0  0  0  0
    0.0000    0.0000    0.0000 N   0  0  0  0  0  0  0  0  0  0  0  0
  1  2  1  0
  2  3  1  0
  3  4  2  0
  4  5  1  0
  5  6  2  0
  6  7  1  0
  7  8  1  0
  8  9  2  0
  9 10  1  0
 10 11  2  0
  8 12  1  0
 12 13  2  0
 12 14  2  0
 12 15  1  0
 11  3  1  0
 10  6  1  0
M  END
>  <pIC50>  (155) 
8.29

>  <ChEMBL_ID>  (155) 
CHEMBL162280

>  <document_journal>  (155) 
J. Med. Chem.

>  <bao_endpoint>  (155) 
BAO_0000190

>  <potential_duplicate>  (155) 
False

>  <uo_units>  (155) 
UO_0000065

>  <canonical_smiles>  (155) 
COc1ccc2oc(cc2c1)S(=O)(=O)N

>  <parent_molecule_chembl_id>  (155) 
CHEMBL162280

>  <assay_type>  (155) 
B

>  <src_id>  (155) 
1

>  <ligand_efficiency>  (155) 
{u'le': u'0.76', u'bei': u'36.49', u'sei': u'9.12', u'lle': u'7.34'}

>  <standard_flag>  (155) 
True

>  <molecule_chembl_id>  (155) 
CHEMBL162280

>  <target_organism>  (155) 
Homo sapiens

>  <standard_units>  (155) 
nM

>  <record_id>  (155) 
322585

>  <document_chembl_id>  (155) 
CHEMBL1124833

>  <bao_format>  (155) 
BAO_0000357

>  <data_validity_description>  (155) 
None

>  <activity_id>  (155) 
214818

>  <standard_type>  (155) 
IC50

>  <target_chembl_id>  (155) 
CHEMBL205

>  <data_validity_comment>  (155) 
None

>  <published_value>  (155) 
5.1

>  <document_year>  (155) 
1990

>  <target_pref_name>  (155) 
Carbonic anhydrase II

>  <assay_chembl_id>  (155) 
CHEMBL656576

>  <standard_relation>  (155) 
=

>  <assay_description>  (155) 
In vitro inhibition of human carbonic anhydrase II (0.1 nM).

>  <published_relation>  (155) 
=

>  <standard_value>  (155) 
5.1

>  <qudt_units>  (155) 
http://www.openphacts.org/units/Nanomolar

>  <target_tax_id>  (155) 
9606

>  <bao_label>  (155) 
single protein format

>  <published_units>  (155) 
nM

>  <pchembl_value>  (155) 
8.29

>  <published_type>  (155) 
I50

>  <activity_comment>  (155) 
None

$$$$

     RDKit          

 16 16  0  0  0  0  0  0  0  0999 V2000
    0.0000    0.0000    0.0000 N   0  0  0  0  0  0  0  0  0  0  0  0
    0.0000    0.0000    0.0000 S   0  0  0  0  0  0  0  0  0  0  0  0
    0.0000    0.0000    0.0000 O   0  0  0  0  0  0  0  0  0  0  0  0
    0.0000    0.0000    0.0000 O   0  0  0  0  0  0  0  0  0  0  0  0
    0.0000    0.0000    0.0000 C   0  0  0  0  0  0  0  0  0  0  0  0
    0.0000    0.0000    0.0000 C   0  0  0  0  0  0  0  0  0  0  0  0
    0.0000    0.0000    0.0000 C   0  0  0  0  0  0  0  0  0  0  0  0
    0.0000    0.0000    0.0000 C   0  0  0  0  0  0  0  0  0  0  0  0
    0.0000    0.0000    0.0000 C   0  0  0  0  0  0  0  0  0  0  0  0
    0.0000    0.0000    0.0000 C   0  0  0  0  0  0  0  0  0  0  0  0
    0.0000    0.0000    0.0000 C   0  0  0  0  0  0  0  0  0  0  0  0
    0.0000    0.0000    0.0000 C   0  0  0  0  0  0  0  0  0  0  0  0
    0.0000    0.0000    0.0000 C   0  0  0  0  0  0  0  0  0  0  0  0
    0.0000    0.0000    0.0000 O   0  0  0  0  0  0  0  0  0  0  0  0
    0.0000    0.0000    0.0000 C   0  0  0  0  0  0  0  0  0  0  0  0
    0.0000    0.0000    0.0000 C   0  0  0  0  0  0  0  0  0  0  0  0
  1  2  1  0
  2  3  2  0
  2  4  2  0
  2  5  1  0
  5  6  2  0
  6  7  1  0
  7  8  2  0
  8  9  1  0
  9 10  1  0
 10 11  1  0
 11 12  1  0
 12 13  1  0
 13 14  1  0
  8 15  1  0
 15 16  2  0
 16  5  1  0
M  END
>  <pIC50>  (156) 
8.1

>  <ChEMBL_ID>  (156) 
CHEMBL105637

>  <document_journal>  (156) 
J. Med. Chem.

>  <bao_endpoint>  (156) 
BAO_0000190

>  <potential_duplicate>  (156) 
False

>  <uo_units>  (156) 
UO_0000065

>  <canonical_smiles>  (156) 
NS(=O)(=O)c1ccc(CCCCCO)cc1

>  <parent_molecule_chembl_id>  (156) 
CHEMBL105637

>  <assay_type>  (156) 
F

>  <src_id>  (156) 
1

>  <ligand_efficiency>  (156) 
None

>  <standard_flag>  (156) 
True

>  <molecule_chembl_id>  (156) 
CHEMBL105637

>  <target_organism>  (156) 
Homo sapiens

>  <standard_units>  (156) 
nM

>  <record_id>  (156) 
197021

>  <document_chembl_id>  (156) 
CHEMBL1125912

>  <bao_format>  (156) 
BAO_0000019

>  <data_validity_description>  (156) 
None

>  <activity_id>  (156) 
216068

>  <standard_type>  (156) 
IC50

>  <target_chembl_id>  (156) 
CHEMBL205

>  <data_validity_comment>  (156) 
None

>  <published_value>  (156) 
8

>  <document_year>  (156) 
1991

>  <target_pref_name>  (156) 
Carbonic anhydrase II

>  <assay_chembl_id>  (156) 
CHEMBL694391

>  <standard_relation>  (156) 
=

>  <assay_description>  (156) 
Inhibitory activity against human carbonic anhydrase II using pH stat assay

>  <published_relation>  (156) 
=

>  <standard_value>  (156) 
8

>  <qudt_units>  (156) 
http://www.openphacts.org/units/Nanomolar

>  <target_tax_id>  (156) 
9606

>  <bao_label>  (156) 
assay format

>  <published_units>  (156) 
nM

>  <pchembl_value>  (156) 
8.1

>  <published_type>  (156) 
I50

>  <activity_comment>  (156) 
None

$$$$

     RDKit          

 14 15  0  0  0  0  0  0  0  0999 V2000
    0.0000    0.0000    0.0000 N   0  0  0  0  0  0  0  0  0  0  0  0
    0.0000    0.0000    0.0000 S   0  0  0  0  0  0  0  0  0  0  0  0
    0.0000    0.0000    0.0000 O   0  0  0  0  0  0  0  0  0  0  0  0
    0.0000    0.0000    0.0000 O   0  0  0  0  0  0  0  0  0  0  0  0
    0.0000    0.0000    0.0000 C   0  0  0  0  0  0  0  0  0  0  0  0
    0.0000    0.0000    0.0000 C   0  0  0  0  0  0  0  0  0  0  0  0
    0.0000    0.0000    0.0000 C   0  0  0  0  0  0  0  0  0  0  0  0
    0.0000    0.0000    0.0000 C   0  0  0  0  0  0  0  0  0  0  0  0
    0.0000    0.0000    0.0000 C   0  0  0  0  0  0  0  0  0  0  0  0
    0.0000    0.0000    0.0000 C   0  0  0  0  0  0  0  0  0  0  0  0
    0.0000    0.0000    0.0000 O   0  0  0  0  0  0  0  0  0  0  0  0
    0.0000    0.0000    0.0000 C   0  0  0  0  0  0  0  0  0  0  0  0
    0.0000    0.0000    0.0000 C   0  0  0  0  0  0  0  0  0  0  0  0
    0.0000    0.0000    0.0000 N   0  0  0  0  0  0  0  0  0  0  0  0
  1  2  1  0
  2  3  2  0
  2  4  2  0
  2  5  1  0
  5  6  2  0
  6  7  1  0
  7  8  2  0
  8  9  1  0
  9 10  2  0
 10 11  1  0
 10 12  1  0
 12 13  2  0
 13 14  1  0
 14  5  1  0
 13  7  1  0
M  END
>  <pIC50>  (157) 
7.52

>  <ChEMBL_ID>  (157) 
CHEMBL350086

>  <document_journal>  (157) 
J. Med. Chem.

>  <bao_endpoint>  (157) 
BAO_0000190

>  <potential_duplicate>  (157) 
False

>  <uo_units>  (157) 
UO_0000065

>  <canonical_smiles>  (157) 
NS(=O)(=O)c1cc2ccc(O)cc2[nH]1

>  <parent_molecule_chembl_id>  (157) 
CHEMBL350086

>  <assay_type>  (157) 
B

>  <src_id>  (157) 
1

>  <ligand_efficiency>  (157) 
{u'le': u'0.73', u'bei': u'35.45', u'sei': u'7.19', u'lle': u'6.81'}

>  <standard_flag>  (157) 
True

>  <molecule_chembl_id>  (157) 
CHEMBL350086

>  <target_organism>  (157) 
Homo sapiens

>  <standard_units>  (157) 
nM

>  <record_id>  (157) 
322577

>  <document_chembl_id>  (157) 
CHEMBL1124833

>  <bao_format>  (157) 
BAO_0000357

>  <data_validity_description>  (157) 
None

>  <activity_id>  (157) 
217216

>  <standard_type>  (157) 
IC50

>  <target_chembl_id>  (157) 
CHEMBL205

>  <data_validity_comment>  (157) 
None

>  <published_value>  (157) 
30

>  <document_year>  (157) 
1990

>  <target_pref_name>  (157) 
Carbonic anhydrase II

>  <assay_chembl_id>  (157) 
CHEMBL656576

>  <standard_relation>  (157) 
=

>  <assay_description>  (157) 
In vitro inhibition of human carbonic anhydrase II (0.1 nM).

>  <published_relation>  (157) 
=

>  <standard_value>  (157) 
30

>  <qudt_units>  (157) 
http://www.openphacts.org/units/Nanomolar

>  <target_tax_id>  (157) 
9606

>  <bao_label>  (157) 
single protein format

>  <published_units>  (157) 
nM

>  <pchembl_value>  (157) 
7.52

>  <published_type>  (157) 
I50

>  <activity_comment>  (157) 
None

$$$$

     RDKit          

 17 17  0  0  0  0  0  0  0  0999 V2000
    0.0000    0.0000    0.0000 N   0  0  0  0  0  0  0  0  0  0  0  0
    0.0000    0.0000    0.0000 C   0  0  0  0  0  0  0  0  0  0  0  0
    0.0000    0.0000    0.0000 C   0  0  0  0  0  0  0  0  0  0  0  0
    0.0000    0.0000    0.0000 C   0  0  0  0  0  0  0  0  0  0  0  0
    0.0000    0.0000    0.0000 C   0  0  0  0  0  0  0  0  0  0  0  0
    0.0000    0.0000    0.0000 C   0  0  0  0  0  0  0  0  0  0  0  0
    0.0000    0.0000    0.0000 C   0  0  0  0  0  0  0  0  0  0  0  0
    0.0000    0.0000    0.0000 S   0  0  0  0  0  0  0  0  0  0  0  0
    0.0000    0.0000    0.0000 O   0  0  0  0  0  0  0  0  0  0  0  0
    0.0000    0.0000    0.0000 O   0  0  0  0  0  0  0  0  0  0  0  0
    0.0000    0.0000    0.0000 C   0  0  0  0  0  0  0  0  0  0  0  0
    0.0000    0.0000    0.0000 C   0  0  0  0  0  0  0  0  0  0  0  0
    0.0000    0.0000    0.0000 O   0  0  0  0  0  0  0  0  0  0  0  0
    0.0000    0.0000    0.0000 S   0  0  0  0  0  0  0  0  0  0  0  0
    0.0000    0.0000    0.0000 O   0  0  0  0  0  0  0  0  0  0  0  0
    0.0000    0.0000    0.0000 O   0  0  0  0  0  0  0  0  0  0  0  0
    0.0000    0.0000    0.0000 N   0  0  0  0  0  0  0  0  0  0  0  0
  1  2  1  0
  2  3  2  0
  3  4  1  0
  4  5  2  0
  5  6  1  0
  6  7  2  0
  7  8  1  0
  8  9  2  0
  8 10  2  0
  8 11  1  0
 11 12  1  0
 12 13  1  0
  4 14  1  0
 14 15  2  0
 14 16  2  0
 14 17  1  0
  7  2  1  0
M  END
>  <pIC50>  (158) 
7.29

>  <ChEMBL_ID>  (158) 
CHEMBL104524

>  <document_journal>  (158) 
J. Med. Chem.

>  <bao_endpoint>  (158) 
BAO_0000190

>  <potential_duplicate>  (158) 
False

>  <uo_units>  (158) 
UO_0000065

>  <canonical_smiles>  (158) 
Nc1cc(ccc1S(=O)(=O)CCO)S(=O)(=O)N

>  <parent_molecule_chembl_id>  (158) 
CHEMBL104524

>  <assay_type>  (158) 
F

>  <src_id>  (158) 
1

>  <ligand_efficiency>  (158) 
None

>  <standard_flag>  (158) 
True

>  <molecule_chembl_id>  (158) 
CHEMBL104524

>  <target_organism>  (158) 
Homo sapiens

>  <standard_units>  (158) 
nM

>  <record_id>  (158) 
197009

>  <document_chembl_id>  (158) 
CHEMBL1125912

>  <bao_format>  (158) 
BAO_0000019

>  <data_validity_description>  (158) 
None

>  <activity_id>  (158) 
217298

>  <standard_type>  (158) 
IC50

>  <target_chembl_id>  (158) 
CHEMBL205

>  <data_validity_comment>  (158) 
None

>  <published_value>  (158) 
51

>  <document_year>  (158) 
1991

>  <target_pref_name>  (158) 
Carbonic anhydrase II

>  <assay_chembl_id>  (158) 
CHEMBL694391

>  <standard_relation>  (158) 
=

>  <assay_description>  (158) 
Inhibitory activity against human carbonic anhydrase II using pH stat assay

>  <published_relation>  (158) 
=

>  <standard_value>  (158) 
51

>  <qudt_units>  (158) 
http://www.openphacts.org/units/Nanomolar

>  <target_tax_id>  (158) 
9606

>  <bao_label>  (158) 
assay format

>  <published_units>  (158) 
nM

>  <pchembl_value>  (158) 
7.29

>  <published_type>  (158) 
I50

>  <activity_comment>  (158) 
None

$$$$

     RDKit          

 17 17  0  0  0  0  0  0  0  0999 V2000
    0.0000    0.0000    0.0000 N   0  0  0  0  0  0  0  0  0  0  0  0
    0.0000    0.0000    0.0000 S   0  0  0  0  0  0  0  0  0  0  0  0
    0.0000    0.0000    0.0000 O   0  0  0  0  0  0  0  0  0  0  0  0
    0.0000    0.0000    0.0000 O   0  0  0  0  0  0  0  0  0  0  0  0
    0.0000    0.0000    0.0000 C   0  0  0  0  0  0  0  0  0  0  0  0
    0.0000    0.0000    0.0000 C   0  0  0  0  0  0  0  0  0  0  0  0
    0.0000    0.0000    0.0000 C   0  0  0  0  0  0  0  0  0  0  0  0
    0.0000    0.0000    0.0000 C   0  0  0  0  0  0  0  0  0  0  0  0
    0.0000    0.0000    0.0000 S   0  0  0  0  0  0  0  0  0  0  0  0
    0.0000    0.0000    0.0000 C   0  0  0  0  0  0  0  0  0  0  0  0
    0.0000    0.0000    0.0000 C   0  0  0  0  0  0  0  0  0  0  0  0
    0.0000    0.0000    0.0000 O   0  0  0  0  0  0  0  0  0  0  0  0
    0.0000    0.0000    0.0000 C   0  0  0  0  0  0  0  0  0  0  0  0
    0.0000    0.0000    0.0000 C   0  0  0  0  0  0  0  0  0  0  0  0
    0.0000    0.0000    0.0000 N   0  0  0  0  0  0  0  0  0  0  0  0
    0.0000    0.0000    0.0000 O   0  0  0  0  0  0  0  0  0  0  0  0
    0.0000    0.0000    0.0000 O   0  0  0  0  0  0  0  0  0  0  0  0
  1  2  1  0
  2  3  2  0
  2  4  2  0
  2  5  1  0
  5  6  2  0
  6  7  1  0
  7  8  2  0
  8  9  1  0
  9 10  1  0
 10 11  1  0
 11 12  1  0
  8 13  1  0
 13 14  2  0
 13 15  1  0
 15 16  2  0
 15 17  1  0
 14  5  1  0
M  CHG  2  15   1  17  -1
M  END
>  <pIC50>  (159) 
7.68

>  <ChEMBL_ID>  (159) 
CHEMBL105730

>  <document_journal>  (159) 
J. Med. Chem.

>  <bao_endpoint>  (159) 
BAO_0000190

>  <potential_duplicate>  (159) 
False

>  <uo_units>  (159) 
UO_0000065

>  <canonical_smiles>  (159) 
NS(=O)(=O)c1ccc(SCCO)c(c1)[N+](=O)[O-]

>  <parent_molecule_chembl_id>  (159) 
CHEMBL105730

>  <assay_type>  (159) 
F

>  <src_id>  (159) 
1

>  <ligand_efficiency>  (159) 
None

>  <standard_flag>  (159) 
True

>  <molecule_chembl_id>  (159) 
CHEMBL105730

>  <target_organism>  (159) 
Homo sapiens

>  <standard_units>  (159) 
nM

>  <record_id>  (159) 
197000

>  <document_chembl_id>  (159) 
CHEMBL1125912

>  <bao_format>  (159) 
BAO_0000019

>  <data_validity_description>  (159) 
None

>  <activity_id>  (159) 
218516

>  <standard_type>  (159) 
IC50

>  <target_chembl_id>  (159) 
CHEMBL205

>  <data_validity_comment>  (159) 
None

>  <published_value>  (159) 
21

>  <document_year>  (159) 
1991

>  <target_pref_name>  (159) 
Carbonic anhydrase II

>  <assay_chembl_id>  (159) 
CHEMBL694391

>  <standard_relation>  (159) 
=

>  <assay_description>  (159) 
Inhibitory activity against human carbonic anhydrase II using pH stat assay

>  <published_relation>  (159) 
=

>  <standard_value>  (159) 
21

>  <qudt_units>  (159) 
http://www.openphacts.org/units/Nanomolar

>  <target_tax_id>  (159) 
9606

>  <bao_label>  (159) 
assay format

>  <published_units>  (159) 
nM

>  <pchembl_value>  (159) 
7.68

>  <published_type>  (159) 
I50

>  <activity_comment>  (159) 
None

$$$$

     RDKit          

 17 18  0  0  0  0  0  0  0  0999 V2000
    0.0000    0.0000    0.0000 C   0  0  0  0  0  0  0  0  0  0  0  0
    0.0000    0.0000    0.0000 C   0  0  0  0  0  0  0  0  0  0  0  0
    0.0000    0.0000    0.0000 O   0  0  0  0  0  0  0  0  0  0  0  0
    0.0000    0.0000    0.0000 O   0  0  0  0  0  0  0  0  0  0  0  0
    0.0000    0.0000    0.0000 C   0  0  0  0  0  0  0  0  0  0  0  0
    0.0000    0.0000    0.0000 C   0  0  0  0  0  0  0  0  0  0  0  0
    0.0000    0.0000    0.0000 C   0  0  0  0  0  0  0  0  0  0  0  0
    0.0000    0.0000    0.0000 C   0  0  0  0  0  0  0  0  0  0  0  0
    0.0000    0.0000    0.0000 C   0  0  0  0  0  0  0  0  0  0  0  0
    0.0000    0.0000    0.0000 C   0  0  0  0  0  0  0  0  0  0  0  0
    0.0000    0.0000    0.0000 N   0  0  0  0  0  0  0  0  0  0  0  0
    0.0000    0.0000    0.0000 C   0  0  0  0  0  0  0  0  0  0  0  0
    0.0000    0.0000    0.0000 C   0  0  0  0  0  0  0  0  0  0  0  0
    0.0000    0.0000    0.0000 S   0  0  0  0  0  0  0  0  0  0  0  0
    0.0000    0.0000    0.0000 O   0  0  0  0  0  0  0  0  0  0  0  0
    0.0000    0.0000    0.0000 O   0  0  0  0  0  0  0  0  0  0  0  0
    0.0000    0.0000    0.0000 N   0  0  0  0  0  0  0  0  0  0  0  0
  1  2  1  0
  2  3  2  0
  2  4  1  0
  4  5  1  0
  5  6  2  0
  6  7  1  0
  7  8  2  0
  8  9  1  0
  9 10  2  0
 10 11  1  0
 11 12  1  0
 12 13  2  0
 10 14  1  0
 14 15  2  0
 14 16  2  0
 14 17  1  0
 13  5  1  0
 12  8  1  0
M  END
>  <pIC50>  (160) 
7.5

>  <ChEMBL_ID>  (160) 
CHEMBL164189

>  <document_journal>  (160) 
J. Med. Chem.

>  <bao_endpoint>  (160) 
BAO_0000190

>  <potential_duplicate>  (160) 
False

>  <uo_units>  (160) 
UO_0000065

>  <canonical_smiles>  (160) 
CC(=O)Oc1ccc2cc([nH]c2c1)S(=O)(=O)N

>  <parent_molecule_chembl_id>  (160) 
CHEMBL164189

>  <assay_type>  (160) 
B

>  <src_id>  (160) 
1

>  <ligand_efficiency>  (160) 
{u'le': u'0.6', u'bei': u'29.48', u'sei': u'6.77', u'lle': u'6.77'}

>  <standard_flag>  (160) 
True

>  <molecule_chembl_id>  (160) 
CHEMBL164189

>  <target_organism>  (160) 
Homo sapiens

>  <standard_units>  (160) 
nM

>  <record_id>  (160) 
322575

>  <document_chembl_id>  (160) 
CHEMBL1124833

>  <bao_format>  (160) 
BAO_0000357

>  <data_validity_description>  (160) 
None

>  <activity_id>  (160) 
220794

>  <standard_type>  (160) 
IC50

>  <target_chembl_id>  (160) 
CHEMBL205

>  <data_validity_comment>  (160) 
None

>  <published_value>  (160) 
32

>  <document_year>  (160) 
1990

>  <target_pref_name>  (160) 
Carbonic anhydrase II

>  <assay_chembl_id>  (160) 
CHEMBL656576

>  <standard_relation>  (160) 
=

>  <assay_description>  (160) 
In vitro inhibition of human carbonic anhydrase II (0.1 nM).

>  <published_relation>  (160) 
=

>  <standard_value>  (160) 
32

>  <qudt_units>  (160) 
http://www.openphacts.org/units/Nanomolar

>  <target_tax_id>  (160) 
9606

>  <bao_label>  (160) 
single protein format

>  <published_units>  (160) 
nM

>  <pchembl_value>  (160) 
7.5

>  <published_type>  (160) 
I50

>  <activity_comment>  (160) 
None

$$$$

     RDKit          

 16 16  0  0  0  0  0  0  0  0999 V2000
    0.0000    0.0000    0.0000 N   0  0  0  0  0  0  0  0  0  0  0  0
    0.0000    0.0000    0.0000 S   0  0  0  0  0  0  0  0  0  0  0  0
    0.0000    0.0000    0.0000 O   0  0  0  0  0  0  0  0  0  0  0  0
    0.0000    0.0000    0.0000 O   0  0  0  0  0  0  0  0  0  0  0  0
    0.0000    0.0000    0.0000 C   0  0  0  0  0  0  0  0  0  0  0  0
    0.0000    0.0000    0.0000 C   0  0  0  0  0  0  0  0  0  0  0  0
    0.0000    0.0000    0.0000 C   0  0  0  0  0  0  0  0  0  0  0  0
    0.0000    0.0000    0.0000 C   0  0  0  0  0  0  0  0  0  0  0  0
    0.0000    0.0000    0.0000 S   0  0  0  0  0  0  0  0  0  0  0  0
    0.0000    0.0000    0.0000 C   0  0  0  0  0  0  0  0  0  0  0  0
    0.0000    0.0000    0.0000 C   0  0  0  0  0  0  0  0  0  0  0  0
    0.0000    0.0000    0.0000 C   0  0  0  0  0  0  0  0  0  0  0  0
    0.0000    0.0000    0.0000 O   0  0  0  0  0  0  0  0  0  0  0  0
    0.0000    0.0000    0.0000 C   0  0  0  0  0  0  0  0  0  0  0  0
    0.0000    0.0000    0.0000 Cl  0  0  0  0  0  0  0  0  0  0  0  0
    0.0000    0.0000    0.0000 C   0  0  0  0  0  0  0  0  0  0  0  0
  1  2  1  0
  2  3  2  0
  2  4  2  0
  2  5  1  0
  5  6  2  0
  6  7  1  0
  7  8  2  0
  8  9  1  0
  9 10  1  0
 10 11  1  0
 11 12  1  0
 12 13  1  0
  8 14  1  0
 14 15  1  0
 14 16  2  0
 16  5  1  0
M  END
>  <pIC50>  (161) 
8.05

>  <ChEMBL_ID>  (161) 
CHEMBL105607

>  <document_journal>  (161) 
J. Med. Chem.

>  <bao_endpoint>  (161) 
BAO_0000190

>  <potential_duplicate>  (161) 
False

>  <uo_units>  (161) 
UO_0000065

>  <canonical_smiles>  (161) 
NS(=O)(=O)c1ccc(SCCCO)c(Cl)c1

>  <parent_molecule_chembl_id>  (161) 
CHEMBL105607

>  <assay_type>  (161) 
F

>  <src_id>  (161) 
1

>  <ligand_efficiency>  (161) 
None

>  <standard_flag>  (161) 
True

>  <molecule_chembl_id>  (161) 
CHEMBL105607

>  <target_organism>  (161) 
Homo sapiens

>  <standard_units>  (161) 
nM

>  <record_id>  (161) 
196996

>  <document_chembl_id>  (161) 
CHEMBL1125912

>  <bao_format>  (161) 
BAO_0000019

>  <data_validity_description>  (161) 
None

>  <activity_id>  (161) 
220843

>  <standard_type>  (161) 
IC50

>  <target_chembl_id>  (161) 
CHEMBL205

>  <data_validity_comment>  (161) 
None

>  <published_value>  (161) 
9

>  <document_year>  (161) 
1991

>  <target_pref_name>  (161) 
Carbonic anhydrase II

>  <assay_chembl_id>  (161) 
CHEMBL694391

>  <standard_relation>  (161) 
=

>  <assay_description>  (161) 
Inhibitory activity against human carbonic anhydrase II using pH stat assay

>  <published_relation>  (161) 
=

>  <standard_value>  (161) 
9

>  <qudt_units>  (161) 
http://www.openphacts.org/units/Nanomolar

>  <target_tax_id>  (161) 
9606

>  <bao_label>  (161) 
assay format

>  <published_units>  (161) 
nM

>  <pchembl_value>  (161) 
8.05

>  <published_type>  (161) 
I50

>  <activity_comment>  (161) 
None

$$$$

     RDKit          

 15 15  0  0  0  0  0  0  0  0999 V2000
    0.0000    0.0000    0.0000 N   0  0  0  0  0  0  0  0  0  0  0  0
    0.0000    0.0000    0.0000 S   0  0  0  0  0  0  0  0  0  0  0  0
    0.0000    0.0000    0.0000 O   0  0  0  0  0  0  0  0  0  0  0  0
    0.0000    0.0000    0.0000 O   0  0  0  0  0  0  0  0  0  0  0  0
    0.0000    0.0000    0.0000 C   0  0  0  0  0  0  0  0  0  0  0  0
    0.0000    0.0000    0.0000 C   0  0  0  0  0  0  0  0  0  0  0  0
    0.0000    0.0000    0.0000 C   0  0  0  0  0  0  0  0  0  0  0  0
    0.0000    0.0000    0.0000 C   0  0  0  0  0  0  0  0  0  0  0  0
    0.0000    0.0000    0.0000 S   0  0  0  0  0  0  0  0  0  0  0  0
    0.0000    0.0000    0.0000 S   0  0  0  0  0  0  0  0  0  0  0  0
    0.0000    0.0000    0.0000 O   0  0  0  0  0  0  0  0  0  0  0  0
    0.0000    0.0000    0.0000 O   0  0  0  0  0  0  0  0  0  0  0  0
    0.0000    0.0000    0.0000 C   0  0  0  0  0  0  0  0  0  0  0  0
    0.0000    0.0000    0.0000 C   0  0  0  0  0  0  0  0  0  0  0  0
    0.0000    0.0000    0.0000 O   0  0  0  0  0  0  0  0  0  0  0  0
  1  2  1  0
  2  3  2  0
  2  4  2  0
  2  5  1  0
  5  6  2  0
  6  7  1  0
  7  8  2  0
  8  9  1  0
  8 10  1  0
 10 11  2  0
 10 12  2  0
 10 13  1  0
 13 14  1  0
 14 15  1  0
  9  5  1  0
M  END
>  <pIC50>  (162) 
8.22

>  <ChEMBL_ID>  (162) 
CHEMBL104463

>  <document_journal>  (162) 
J. Med. Chem.

>  <bao_endpoint>  (162) 
BAO_0000190

>  <potential_duplicate>  (162) 
False

>  <uo_units>  (162) 
UO_0000065

>  <canonical_smiles>  (162) 
NS(=O)(=O)c1ccc(s1)S(=O)(=O)CCO

>  <parent_molecule_chembl_id>  (162) 
CHEMBL104463

>  <assay_type>  (162) 
F

>  <src_id>  (162) 
1

>  <ligand_efficiency>  (162) 
None

>  <standard_flag>  (162) 
True

>  <molecule_chembl_id>  (162) 
CHEMBL104463

>  <target_organism>  (162) 
Homo sapiens

>  <standard_units>  (162) 
nM

>  <record_id>  (162) 
197016

>  <document_chembl_id>  (162) 
CHEMBL1125912

>  <bao_format>  (162) 
BAO_0000019

>  <data_validity_description>  (162) 
None

>  <activity_id>  (162) 
220847

>  <standard_type>  (162) 
IC50

>  <target_chembl_id>  (162) 
CHEMBL205

>  <data_validity_comment>  (162) 
None

>  <published_value>  (162) 
6

>  <document_year>  (162) 
1991

>  <target_pref_name>  (162) 
Carbonic anhydrase II

>  <assay_chembl_id>  (162) 
CHEMBL694391

>  <standard_relation>  (162) 
=

>  <assay_description>  (162) 
Inhibitory activity against human carbonic anhydrase II using pH stat assay

>  <published_relation>  (162) 
=

>  <standard_value>  (162) 
6

>  <qudt_units>  (162) 
http://www.openphacts.org/units/Nanomolar

>  <target_tax_id>  (162) 
9606

>  <bao_label>  (162) 
assay format

>  <published_units>  (162) 
nM

>  <pchembl_value>  (162) 
8.22

>  <published_type>  (162) 
I50

>  <activity_comment>  (162) 
None

$$$$

     RDKit          

 15 15  0  0  0  0  0  0  0  0999 V2000
    0.0000    0.0000    0.0000 N   0  0  0  0  0  0  0  0  0  0  0  0
    0.0000    0.0000    0.0000 S   0  0  0  0  0  0  0  0  0  0  0  0
    0.0000    0.0000    0.0000 O   0  0  0  0  0  0  0  0  0  0  0  0
    0.0000    0.0000    0.0000 O   0  0  0  0  0  0  0  0  0  0  0  0
    0.0000    0.0000    0.0000 C   0  0  0  0  0  0  0  0  0  0  0  0
    0.0000    0.0000    0.0000 C   0  0  0  0  0  0  0  0  0  0  0  0
    0.0000    0.0000    0.0000 C   0  0  0  0  0  0  0  0  0  0  0  0
    0.0000    0.0000    0.0000 C   0  0  0  0  0  0  0  0  0  0  0  0
    0.0000    0.0000    0.0000 S   0  0  0  0  0  0  0  0  0  0  0  0
    0.0000    0.0000    0.0000 C   0  0  0  0  0  0  0  0  0  0  0  0
    0.0000    0.0000    0.0000 C   0  0  0  0  0  0  0  0  0  0  0  0
    0.0000    0.0000    0.0000 O   0  0  0  0  0  0  0  0  0  0  0  0
    0.0000    0.0000    0.0000 C   0  0  0  0  0  0  0  0  0  0  0  0
    0.0000    0.0000    0.0000 F   0  0  0  0  0  0  0  0  0  0  0  0
    0.0000    0.0000    0.0000 C   0  0  0  0  0  0  0  0  0  0  0  0
  1  2  1  0
  2  3  2  0
  2  4  2  0
  2  5  1  0
  5  6  2  0
  6  7  1  0
  7  8  2  0
  8  9  1  0
  9 10  1  0
 10 11  1  0
 11 12  1  0
  8 13  1  0
 13 14  1  0
 13 15  2  0
 15  5  1  0
M  END
>  <pIC50>  (163) 
8.05

>  <ChEMBL_ID>  (163) 
CHEMBL107266

>  <document_journal>  (163) 
J. Med. Chem.

>  <bao_endpoint>  (163) 
BAO_0000190

>  <potential_duplicate>  (163) 
False

>  <uo_units>  (163) 
UO_0000065

>  <canonical_smiles>  (163) 
NS(=O)(=O)c1ccc(SCCO)c(F)c1

>  <parent_molecule_chembl_id>  (163) 
CHEMBL107266

>  <assay_type>  (163) 
F

>  <src_id>  (163) 
1

>  <ligand_efficiency>  (163) 
None

>  <standard_flag>  (163) 
True

>  <molecule_chembl_id>  (163) 
CHEMBL107266

>  <target_organism>  (163) 
Homo sapiens

>  <standard_units>  (163) 
nM

>  <record_id>  (163) 
197006

>  <document_chembl_id>  (163) 
CHEMBL1125912

>  <bao_format>  (163) 
BAO_0000019

>  <data_validity_description>  (163) 
None

>  <activity_id>  (163) 
222072

>  <standard_type>  (163) 
IC50

>  <target_chembl_id>  (163) 
CHEMBL205

>  <data_validity_comment>  (163) 
None

>  <published_value>  (163) 
9

>  <document_year>  (163) 
1991

>  <target_pref_name>  (163) 
Carbonic anhydrase II

>  <assay_chembl_id>  (163) 
CHEMBL694391

>  <standard_relation>  (163) 
=

>  <assay_description>  (163) 
Inhibitory activity against human carbonic anhydrase II using pH stat assay

>  <published_relation>  (163) 
=

>  <standard_value>  (163) 
9

>  <qudt_units>  (163) 
http://www.openphacts.org/units/Nanomolar

>  <target_tax_id>  (163) 
9606

>  <bao_label>  (163) 
assay format

>  <published_units>  (163) 
nM

>  <pchembl_value>  (163) 
8.05

>  <published_type>  (163) 
I50

>  <activity_comment>  (163) 
None

$$$$

     RDKit          

 15 16  0  0  0  0  0  0  0  0999 V2000
    0.0000    0.0000    0.0000 N   0  0  0  0  0  0  0  0  0  0  0  0
    0.0000    0.0000    0.0000 S   0  0  0  0  0  0  0  0  0  0  0  0
    0.0000    0.0000    0.0000 O   0  0  0  0  0  0  0  0  0  0  0  0
    0.0000    0.0000    0.0000 O   0  0  0  0  0  0  0  0  0  0  0  0
    0.0000    0.0000    0.0000 C   0  0  0  0  0  0  0  0  0  0  0  0
    0.0000    0.0000    0.0000 C   0  0  0  0  0  0  0  0  0  0  0  0
    0.0000    0.0000    0.0000 C   0  0  0  0  0  0  0  0  0  0  0  0
    0.0000    0.0000    0.0000 S   0  0  0  0  0  0  0  0  0  0  0  0
    0.0000    0.0000    0.0000 O   0  0  0  0  0  0  0  0  0  0  0  0
    0.0000    0.0000    0.0000 C   0  0  0  0  0  0  0  0  0  0  0  0
    0.0000    0.0000    0.0000 C   0  0  0  0  0  0  0  0  0  0  0  0
    0.0000    0.0000    0.0000 C   0  0  0  0  0  0  0  0  0  0  0  0
    0.0000    0.0000    0.0000 O   0  0  0  0  0  0  0  0  0  0  0  0
    0.0000    0.0000    0.0000 C   0  0  0  0  0  0  0  0  0  0  0  0
    0.0000    0.0000    0.0000 S   0  0  0  0  0  0  0  0  0  0  0  0
  1  2  1  0
  2  3  2  0
  2  4  2  0
  2  5  1  0
  5  6  2  0
  6  7  1  0
  7  8  1  0
  8  9  1  0
  8 10  1  0
 10 11  1  0
 11 12  1  0
 12 13  1  0
 12 14  1  0
 14 15  1  0
 15  5  1  0
 14  7  2  0
M  CHG  2   8   1   9  -1
M  END
>  <pIC50>  (164) 
6.6

>  <ChEMBL_ID>  (164) 
CHEMBL155152

>  <document_journal>  (164) 
J. Med. Chem.

>  <bao_endpoint>  (164) 
BAO_0000190

>  <potential_duplicate>  (164) 
False

>  <uo_units>  (164) 
UO_0000065

>  <canonical_smiles>  (164) 
NS(=O)(=O)c1cc2[S+]([O-])CCC(O)c2s1

>  <parent_molecule_chembl_id>  (164) 
CHEMBL155152

>  <assay_type>  (164) 
B

>  <src_id>  (164) 
1

>  <ligand_efficiency>  (164) 
{u'le': u'0.6', u'bei': u'24.69', u'sei': u'4.31', u'lle': u'7.36'}

>  <standard_flag>  (164) 
True

>  <molecule_chembl_id>  (164) 
CHEMBL155152

>  <target_organism>  (164) 
Homo sapiens

>  <standard_units>  (164) 
nM

>  <record_id>  (164) 
304169

>  <document_chembl_id>  (164) 
CHEMBL1123900

>  <bao_format>  (164) 
BAO_0000357

>  <data_validity_description>  (164) 
None

>  <activity_id>  (164) 
272716

>  <standard_type>  (164) 
IC50

>  <target_chembl_id>  (164) 
CHEMBL205

>  <data_validity_comment>  (164) 
None

>  <published_value>  (164) 
2.5E-7

>  <document_year>  (164) 
1987

>  <target_pref_name>  (164) 
Carbonic anhydrase II

>  <assay_chembl_id>  (164) 
CHEMBL656573

>  <standard_relation>  (164) 
=

>  <assay_description>  (164) 
In vitro inhibition against purified human erythrocyte carbonic anhydrase II was determined (acetozolamide used as control.)

>  <published_relation>  (164) 
=

>  <standard_value>  (164) 
250

>  <qudt_units>  (164) 
http://www.openphacts.org/units/Nanomolar

>  <target_tax_id>  (164) 
9606

>  <bao_label>  (164) 
single protein format

>  <published_units>  (164) 
M

>  <pchembl_value>  (164) 
6.6

>  <published_type>  (164) 
I50

>  <activity_comment>  (164) 
None

$$$$

     RDKit          

 16 17  0  0  0  0  0  0  0  0999 V2000
    0.0000    0.0000    0.0000 N   0  0  0  0  0  0  0  0  0  0  0  0
    0.0000    0.0000    0.0000 S   0  0  0  0  0  0  0  0  0  0  0  0
    0.0000    0.0000    0.0000 O   0  0  0  0  0  0  0  0  0  0  0  0
    0.0000    0.0000    0.0000 O   0  0  0  0  0  0  0  0  0  0  0  0
    0.0000    0.0000    0.0000 C   0  0  0  0  0  0  0  0  0  0  0  0
    0.0000    0.0000    0.0000 C   0  0  0  0  0  0  0  0  0  0  0  0
    0.0000    0.0000    0.0000 C   0  0  0  0  0  0  0  0  0  0  0  0
    0.0000    0.0000    0.0000 C   0  0  0  0  0  0  0  0  0  0  0  0
    0.0000    0.0000    0.0000 O   0  0  0  0  0  0  0  0  0  0  0  0
    0.0000    0.0000    0.0000 C   0  0  0  0  0  0  0  0  0  0  0  0
    0.0000    0.0000    0.0000 C   0  0  0  0  0  0  0  0  0  0  0  0
    0.0000    0.0000    0.0000 S   0  0  0  0  0  0  0  0  0  0  0  0
    0.0000    0.0000    0.0000 O   0  0  0  0  0  0  0  0  0  0  0  0
    0.0000    0.0000    0.0000 O   0  0  0  0  0  0  0  0  0  0  0  0
    0.0000    0.0000    0.0000 C   0  0  0  0  0  0  0  0  0  0  0  0
    0.0000    0.0000    0.0000 S   0  0  0  0  0  0  0  0  0  0  0  0
  1  2  1  0
  2  3  2  0
  2  4  2  0
  2  5  1  0
  5  6  2  0
  6  7  1  0
  7  8  1  0
  8  9  2  0
  8 10  1  0
 10 11  1  0
 11 12  1  0
 12 13  2  0
 12 14  2  0
 12 15  1  0
 15 16  1  0
 16  5  1  0
 15  7  2  0
M  END
>  <pIC50>  (165) 
8.3

>  <ChEMBL_ID>  (165) 
CHEMBL346810

>  <document_journal>  (165) 
J. Med. Chem.

>  <bao_endpoint>  (165) 
BAO_0000190

>  <potential_duplicate>  (165) 
False

>  <uo_units>  (165) 
UO_0000065

>  <canonical_smiles>  (165) 
NS(=O)(=O)c1cc2C(=O)CCS(=O)(=O)c2s1

>  <parent_molecule_chembl_id>  (165) 
CHEMBL346810

>  <assay_type>  (165) 
B

>  <src_id>  (165) 
1

>  <ligand_efficiency>  (165) 
{u'le': u'0.71', u'bei': u'29.51', u'sei': u'5.31', u'lle': u'8.65'}

>  <standard_flag>  (165) 
True

>  <molecule_chembl_id>  (165) 
CHEMBL346810

>  <target_organism>  (165) 
Homo sapiens

>  <standard_units>  (165) 
nM

>  <record_id>  (165) 
304163

>  <document_chembl_id>  (165) 
CHEMBL1123900

>  <bao_format>  (165) 
BAO_0000357

>  <data_validity_description>  (165) 
None

>  <activity_id>  (165) 
275068

>  <standard_type>  (165) 
IC50

>  <target_chembl_id>  (165) 
CHEMBL205

>  <data_validity_comment>  (165) 
None

>  <published_value>  (165) 
5E-9

>  <document_year>  (165) 
1987

>  <target_pref_name>  (165) 
Carbonic anhydrase II

>  <assay_chembl_id>  (165) 
CHEMBL656573

>  <standard_relation>  (165) 
=

>  <assay_description>  (165) 
In vitro inhibition against purified human erythrocyte carbonic anhydrase II was determined (acetozolamide used as control.)

>  <published_relation>  (165) 
=

>  <standard_value>  (165) 
5

>  <qudt_units>  (165) 
http://www.openphacts.org/units/Nanomolar

>  <target_tax_id>  (165) 
9606

>  <bao_label>  (165) 
single protein format

>  <published_units>  (165) 
M

>  <pchembl_value>  (165) 
8.3

>  <published_type>  (165) 
I50

>  <activity_comment>  (165) 
None

$$$$

     RDKit          

 20 21  0  0  0  0  0  0  0  0999 V2000
    0.0000    0.0000    0.0000 C   0  0  0  0  0  0  0  0  0  0  0  0
    0.0000    0.0000    0.0000 C   0  0  0  0  0  0  0  0  0  0  0  0
    0.0000    0.0000    0.0000 C   0  0  0  0  0  0  0  0  0  0  0  0
    0.0000    0.0000    0.0000 C   0  0  0  0  0  0  0  0  0  0  0  0
    0.0000    0.0000    0.0000 C   0  0  0  0  0  0  0  0  0  0  0  0
    0.0000    0.0000    0.0000 O   0  0  0  0  0  0  0  0  0  0  0  0
    0.0000    0.0000    0.0000 O   0  0  0  0  0  0  0  0  0  0  0  0
    0.0000    0.0000    0.0000 C   0  0  0  0  0  0  0  0  0  0  0  0
    0.0000    0.0000    0.0000 C   0  0  0  0  0  0  0  0  0  0  0  0
    0.0000    0.0000    0.0000 C   0  0  0  0  0  0  0  0  0  0  0  0
    0.0000    0.0000    0.0000 C   0  0  0  0  0  0  0  0  0  0  0  0
    0.0000    0.0000    0.0000 N   0  0  0  0  0  0  0  0  0  0  0  0
    0.0000    0.0000    0.0000 C   0  0  0  0  0  0  0  0  0  0  0  0
    0.0000    0.0000    0.0000 S   0  0  0  0  0  0  0  0  0  0  0  0
    0.0000    0.0000    0.0000 C   0  0  0  0  0  0  0  0  0  0  0  0
    0.0000    0.0000    0.0000 C   0  0  0  0  0  0  0  0  0  0  0  0
    0.0000    0.0000    0.0000 S   0  0  0  0  0  0  0  0  0  0  0  0
    0.0000    0.0000    0.0000 O   0  0  0  0  0  0  0  0  0  0  0  0
    0.0000    0.0000    0.0000 O   0  0  0  0  0  0  0  0  0  0  0  0
    0.0000    0.0000    0.0000 N   0  0  0  0  0  0  0  0  0  0  0  0
  1  2  1  0
  2  3  1  0
  2  4  1  0
  2  5  1  0
  5  6  2  0
  5  7  1  0
  7  8  1  0
  8  9  2  0
  9 10  1  0
 10 11  2  0
 11 12  1  0
 12 13  2  0
 13 14  1  0
 14 15  1  0
 15 16  2  0
 13 17  1  0
 17 18  2  0
 17 19  2  0
 17 20  1  0
 16  8  1  0
 15 11  1  0
M  END
>  <pIC50>  (166) 
7.9

>  <ChEMBL_ID>  (166) 
CHEMBL312593

>  <document_journal>  (166) 
J. Med. Chem.

>  <bao_endpoint>  (166) 
BAO_0000190

>  <potential_duplicate>  (166) 
False

>  <uo_units>  (166) 
UO_0000065

>  <canonical_smiles>  (166) 
CC(C)(C)C(=O)Oc1ccc2nc(sc2c1)S(=O)(=O)N

>  <parent_molecule_chembl_id>  (166) 
CHEMBL312593

>  <assay_type>  (166) 
B

>  <src_id>  (166) 
1

>  <ligand_efficiency>  (166) 
{u'le': u'0.51', u'bei': u'23.53', u'sei': u'5.44', u'lle': u'4.93'}

>  <standard_flag>  (166) 
True

>  <molecule_chembl_id>  (166) 
CHEMBL312593

>  <target_organism>  (166) 
Homo sapiens

>  <standard_units>  (166) 
nM

>  <record_id>  (166) 
304160

>  <document_chembl_id>  (166) 
CHEMBL1123900

>  <bao_format>  (166) 
BAO_0000357

>  <data_validity_description>  (166) 
None

>  <activity_id>  (166) 
276419

>  <standard_type>  (166) 
IC50

>  <target_chembl_id>  (166) 
CHEMBL205

>  <data_validity_comment>  (166) 
None

>  <published_value>  (166) 
4E-8

>  <document_year>  (166) 
1987

>  <target_pref_name>  (166) 
Carbonic anhydrase II

>  <assay_chembl_id>  (166) 
CHEMBL656573

>  <standard_relation>  (166) 
=

>  <assay_description>  (166) 
In vitro inhibition against purified human erythrocyte carbonic anhydrase II was determined (acetozolamide used as control.)

>  <published_relation>  (166) 
=

>  <standard_value>  (166) 
40

>  <qudt_units>  (166) 
http://www.openphacts.org/units/Nanomolar

>  <target_tax_id>  (166) 
9606

>  <bao_label>  (166) 
single protein format

>  <published_units>  (166) 
M

>  <pchembl_value>  (166) 
7.4

>  <published_type>  (166) 
I50

>  <activity_comment>  (166) 
None

$$$$

     RDKit          

 16 17  0  0  0  0  0  0  0  0999 V2000
    0.0000    0.0000    0.0000 C   0  0  0  0  0  0  0  0  0  0  0  0
    0.0000    0.0000    0.0000 C   0  0  0  0  0  0  0  0  0  0  0  0
    0.0000    0.0000    0.0000 O   0  0  0  0  0  0  0  0  0  0  0  0
    0.0000    0.0000    0.0000 C   0  0  0  0  0  0  0  0  0  0  0  0
    0.0000    0.0000    0.0000 C   0  0  0  0  0  0  0  0  0  0  0  0
    0.0000    0.0000    0.0000 C   0  0  0  0  0  0  0  0  0  0  0  0
    0.0000    0.0000    0.0000 C   0  0  0  0  0  0  0  0  0  0  0  0
    0.0000    0.0000    0.0000 N   0  0  0  0  0  0  0  0  0  0  0  0
    0.0000    0.0000    0.0000 C   0  0  0  0  0  0  0  0  0  0  0  0
    0.0000    0.0000    0.0000 S   0  0  0  0  0  0  0  0  0  0  0  0
    0.0000    0.0000    0.0000 C   0  0  0  0  0  0  0  0  0  0  0  0
    0.0000    0.0000    0.0000 C   0  0  0  0  0  0  0  0  0  0  0  0
    0.0000    0.0000    0.0000 S   0  0  0  0  0  0  0  0  0  0  0  0
    0.0000    0.0000    0.0000 O   0  0  0  0  0  0  0  0  0  0  0  0
    0.0000    0.0000    0.0000 O   0  0  0  0  0  0  0  0  0  0  0  0
    0.0000    0.0000    0.0000 N   0  0  0  0  0  0  0  0  0  0  0  0
  1  2  1  0
  2  3  1  0
  3  4  1  0
  4  5  2  0
  5  6  1  0
  6  7  2  0
  7  8  1  0
  8  9  2  0
  9 10  1  0
 10 11  1  0
 11 12  2  0
  9 13  1  0
 13 14  2  0
 13 15  2  0
 13 16  1  0
 12  4  1  0
 11  7  1  0
M  END
>  <pIC50>  (167) 
8.99

>  <ChEMBL_ID>  (167) 
CHEMBL18

>  <document_journal>  (167) 
J. Med. Chem.

>  <bao_endpoint>  (167) 
BAO_0000190

>  <potential_duplicate>  (167) 
False

>  <uo_units>  (167) 
UO_0000065

>  <canonical_smiles>  (167) 
CCOc1ccc2nc(sc2c1)S(=O)(=O)N

>  <parent_molecule_chembl_id>  (167) 
CHEMBL18

>  <assay_type>  (167) 
B

>  <src_id>  (167) 
1

>  <ligand_efficiency>  (167) 
{u'le': u'0.8', u'bei': u'36.38', u'sei': u'7.9', u'lle': u'7.91'}

>  <standard_flag>  (167) 
True

>  <molecule_chembl_id>  (167) 
CHEMBL18

>  <target_organism>  (167) 
Homo sapiens

>  <standard_units>  (167) 
nM

>  <record_id>  (167) 
304165

>  <document_chembl_id>  (167) 
CHEMBL1123900

>  <bao_format>  (167) 
BAO_0000357

>  <data_validity_description>  (167) 
None

>  <activity_id>  (167) 
276421

>  <standard_type>  (167) 
IC50

>  <target_chembl_id>  (167) 
CHEMBL205

>  <data_validity_comment>  (167) 
None

>  <published_value>  (167) 
4E-10

>  <document_year>  (167) 
1987

>  <target_pref_name>  (167) 
Carbonic anhydrase II

>  <assay_chembl_id>  (167) 
CHEMBL656573

>  <standard_relation>  (167) 
=

>  <assay_description>  (167) 
In vitro inhibition against purified human erythrocyte carbonic anhydrase II was determined (acetozolamide used as control.)

>  <published_relation>  (167) 
=

>  <standard_value>  (167) 
0.4

>  <qudt_units>  (167) 
http://www.openphacts.org/units/Nanomolar

>  <target_tax_id>  (167) 
9606

>  <bao_label>  (167) 
single protein format

>  <published_units>  (167) 
M

>  <pchembl_value>  (167) 
9.4

>  <published_type>  (167) 
I50

>  <activity_comment>  (167) 
None

$$$$

     RDKit          

 16 17  0  0  0  0  0  0  0  0999 V2000
    0.0000    0.0000    0.0000 N   0  0  0  0  0  0  0  0  0  0  0  0
    0.0000    0.0000    0.0000 S   0  0  0  0  0  0  0  0  0  0  0  0
    0.0000    0.0000    0.0000 O   0  0  0  0  0  0  0  0  0  0  0  0
    0.0000    0.0000    0.0000 O   0  0  0  0  0  0  0  0  0  0  0  0
    0.0000    0.0000    0.0000 C   0  0  0  0  0  0  0  0  0  0  0  0
    0.0000    0.0000    0.0000 C   0  0  0  0  0  0  0  0  0  0  0  0
    0.0000    0.0000    0.0000 C   0  0  0  0  0  0  0  0  0  0  0  0
    0.0000    0.0000    0.0000 C   0  0  0  0  0  0  0  0  0  0  0  0
    0.0000    0.0000    0.0000 O   0  0  0  0  0  0  0  0  0  0  0  0
    0.0000    0.0000    0.0000 C   0  0  0  0  0  0  0  0  0  0  0  0
    0.0000    0.0000    0.0000 C   0  0  0  0  0  0  0  0  0  0  0  0
    0.0000    0.0000    0.0000 S   0  0  0  0  0  0  0  0  0  0  0  0
    0.0000    0.0000    0.0000 O   0  0  0  0  0  0  0  0  0  0  0  0
    0.0000    0.0000    0.0000 O   0  0  0  0  0  0  0  0  0  0  0  0
    0.0000    0.0000    0.0000 C   0  0  0  0  0  0  0  0  0  0  0  0
    0.0000    0.0000    0.0000 S   0  0  0  0  0  0  0  0  0  0  0  0
  1  2  1  0
  2  3  2  0
  2  4  2  0
  2  5  1  0
  5  6  2  0
  6  7  1  0
  7  8  1  0
  8  9  1  0
  8 10  1  0
 10 11  1  0
 11 12  1  0
 12 13  2  0
 12 14  2  0
 12 15  1  0
 15 16  1  0
 16  5  1  0
 15  7  2  0
M  END
>  <pIC50>  (168) 
8.07

>  <ChEMBL_ID>  (168) 
CHEMBL1788205

>  <document_journal>  (168) 
J. Med. Chem.

>  <bao_endpoint>  (168) 
BAO_0000190

>  <potential_duplicate>  (168) 
False

>  <uo_units>  (168) 
UO_0000065

>  <canonical_smiles>  (168) 
NS(=O)(=O)c1cc2[C@H](O)CCS(=O)(=O)c2s1

>  <parent_molecule_chembl_id>  (168) 
CHEMBL1788205

>  <assay_type>  (168) 
B

>  <src_id>  (168) 
1

>  <ligand_efficiency>  (168) 
{u'le': u'0.65', u'bei': u'27.03', u'sei': u'4.8', u'lle': u'8.38'}

>  <standard_flag>  (168) 
True

>  <molecule_chembl_id>  (168) 
CHEMBL1788205

>  <target_organism>  (168) 
Homo sapiens

>  <standard_units>  (168) 
nM

>  <record_id>  (168) 
304167

>  <document_chembl_id>  (168) 
CHEMBL1123900

>  <bao_format>  (168) 
BAO_0000357

>  <data_validity_description>  (168) 
None

>  <activity_id>  (168) 
277633

>  <standard_type>  (168) 
IC50

>  <target_chembl_id>  (168) 
CHEMBL205

>  <data_validity_comment>  (168) 
None

>  <published_value>  (168) 
2.2E-8

>  <document_year>  (168) 
1987

>  <target_pref_name>  (168) 
Carbonic anhydrase II

>  <assay_chembl_id>  (168) 
CHEMBL656573

>  <standard_relation>  (168) 
=

>  <assay_description>  (168) 
In vitro inhibition against purified human erythrocyte carbonic anhydrase II was determined (acetozolamide used as control.)

>  <published_relation>  (168) 
=

>  <standard_value>  (168) 
22

>  <qudt_units>  (168) 
http://www.openphacts.org/units/Nanomolar

>  <target_tax_id>  (168) 
9606

>  <bao_label>  (168) 
single protein format

>  <published_units>  (168) 
M

>  <pchembl_value>  (168) 
7.66

>  <published_type>  (168) 
I50

>  <activity_comment>  (168) 
None

$$$$

     RDKit          

 16 17  0  0  0  0  0  0  0  0999 V2000
    0.0000    0.0000    0.0000 N   0  0  0  0  0  0  0  0  0  0  0  0
    0.0000    0.0000    0.0000 S   0  0  0  0  0  0  0  0  0  0  0  0
    0.0000    0.0000    0.0000 O   0  0  0  0  0  0  0  0  0  0  0  0
    0.0000    0.0000    0.0000 O   0  0  0  0  0  0  0  0  0  0  0  0
    0.0000    0.0000    0.0000 C   0  0  0  0  0  0  0  0  0  0  0  0
    0.0000    0.0000    0.0000 C   0  0  0  0  0  0  0  0  0  0  0  0
    0.0000    0.0000    0.0000 C   0  0  0  0  0  0  0  0  0  0  0  0
    0.0000    0.0000    0.0000 C   0  0  0  0  0  0  0  0  0  0  0  0
    0.0000    0.0000    0.0000 C   0  0  0  0  0  0  0  0  0  0  0  0
    0.0000    0.0000    0.0000 C   0  0  0  0  0  0  0  0  0  0  0  0
    0.0000    0.0000    0.0000 O   0  0  0  0  0  0  0  0  0  0  0  0
    0.0000    0.0000    0.0000 C   0  0  0  0  0  0  0  0  0  0  0  0
    0.0000    0.0000    0.0000 S   0  0  0  0  0  0  0  0  0  0  0  0
    0.0000    0.0000    0.0000 O   0  0  0  0  0  0  0  0  0  0  0  0
    0.0000    0.0000    0.0000 O   0  0  0  0  0  0  0  0  0  0  0  0
    0.0000    0.0000    0.0000 S   0  0  0  0  0  0  0  0  0  0  0  0
  1  2  1  0
  2  3  2  0
  2  4  2  0
  2  5  1  0
  5  6  2  0
  6  7  1  0
  7  8  2  0
  8  9  1  0
  9 10  1  0
 10 11  1  0
 10 12  1  0
 12 13  1  0
 13 14  2  0
 13 15  2  0
  8 16  1  0
 16  5  1  0
 13  7  1  0
M  END
>  <pIC50>  (169) 
7.4

>  <ChEMBL_ID>  (169) 
CHEMBL155420

>  <document_journal>  (169) 
J. Med. Chem.

>  <bao_endpoint>  (169) 
BAO_0000190

>  <potential_duplicate>  (169) 
False

>  <uo_units>  (169) 
UO_0000065

>  <canonical_smiles>  (169) 
NS(=O)(=O)c1cc2c(CC(O)CS2(=O)=O)s1

>  <parent_molecule_chembl_id>  (169) 
CHEMBL155420

>  <assay_type>  (169) 
B

>  <src_id>  (169) 
1

>  <ligand_efficiency>  (169) 
{u'le': u'0.63', u'bei': u'26.11', u'sei': u'4.64', u'lle': u'7.98'}

>  <standard_flag>  (169) 
True

>  <molecule_chembl_id>  (169) 
CHEMBL155420

>  <target_organism>  (169) 
Homo sapiens

>  <standard_units>  (169) 
nM

>  <record_id>  (169) 
304168

>  <document_chembl_id>  (169) 
CHEMBL1123900

>  <bao_format>  (169) 
BAO_0000357

>  <data_validity_description>  (169) 
None

>  <activity_id>  (169) 
288302

>  <standard_type>  (169) 
IC50

>  <target_chembl_id>  (169) 
CHEMBL205

>  <data_validity_comment>  (169) 
None

>  <published_value>  (169) 
4E-8

>  <document_year>  (169) 
1987

>  <target_pref_name>  (169) 
Carbonic anhydrase II

>  <assay_chembl_id>  (169) 
CHEMBL656573

>  <standard_relation>  (169) 
=

>  <assay_description>  (169) 
In vitro inhibition against purified human erythrocyte carbonic anhydrase II was determined (acetozolamide used as control.)

>  <published_relation>  (169) 
=

>  <standard_value>  (169) 
40

>  <qudt_units>  (169) 
http://www.openphacts.org/units/Nanomolar

>  <target_tax_id>  (169) 
9606

>  <bao_label>  (169) 
single protein format

>  <published_units>  (169) 
M

>  <pchembl_value>  (169) 
7.4

>  <published_type>  (169) 
I50

>  <activity_comment>  (169) 
None

$$$$

     RDKit          

 16 17  0  0  0  0  0  0  0  0999 V2000
    0.0000    0.0000    0.0000 N   0  0  0  0  0  0  0  0  0  0  0  0
    0.0000    0.0000    0.0000 S   0  0  0  0  0  0  0  0  0  0  0  0
    0.0000    0.0000    0.0000 O   0  0  0  0  0  0  0  0  0  0  0  0
    0.0000    0.0000    0.0000 O   0  0  0  0  0  0  0  0  0  0  0  0
    0.0000    0.0000    0.0000 C   0  0  0  0  0  0  0  0  0  0  0  0
    0.0000    0.0000    0.0000 C   0  0  0  0  0  0  0  0  0  0  0  0
    0.0000    0.0000    0.0000 C   0  0  0  0  0  0  0  0  0  0  0  0
    0.0000    0.0000    0.0000 C   0  0  0  0  0  0  0  0  0  0  0  0
    0.0000    0.0000    0.0000 O   0  0  0  0  0  0  0  0  0  0  0  0
    0.0000    0.0000    0.0000 C   0  0  0  0  0  0  0  0  0  0  0  0
    0.0000    0.0000    0.0000 C   0  0  0  0  0  0  0  0  0  0  0  0
    0.0000    0.0000    0.0000 S   0  0  0  0  0  0  0  0  0  0  0  0
    0.0000    0.0000    0.0000 O   0  0  0  0  0  0  0  0  0  0  0  0
    0.0000    0.0000    0.0000 O   0  0  0  0  0  0  0  0  0  0  0  0
    0.0000    0.0000    0.0000 C   0  0  0  0  0  0  0  0  0  0  0  0
    0.0000    0.0000    0.0000 S   0  0  0  0  0  0  0  0  0  0  0  0
  1  2  1  0
  2  3  2  0
  2  4  2  0
  2  5  1  0
  5  6  2  0
  6  7  1  0
  7  8  1  0
  8  9  1  0
  8 10  1  0
 10 11  1  0
 11 12  1  0
 12 13  2  0
 12 14  2  0
 12 15  1  0
 15 16  1  0
 16  5  1  0
 15  7  2  0
M  END
>  <pIC50>  (170) 
8.45333333333

>  <ChEMBL_ID>  (170) 
CHEMBL2092886

>  <document_journal>  (170) 
J. Med. Chem.

>  <bao_endpoint>  (170) 
BAO_0000190

>  <potential_duplicate>  (170) 
False

>  <uo_units>  (170) 
UO_0000065

>  <canonical_smiles>  (170) 
NS(=O)(=O)c1cc2[C@@H](O)CCS(=O)(=O)c2s1

>  <parent_molecule_chembl_id>  (170) 
CHEMBL2092886

>  <assay_type>  (170) 
B

>  <src_id>  (170) 
1

>  <ligand_efficiency>  (170) 
{u'le': u'0.69', u'bei': u'28.67', u'sei': u'5.09', u'lle': u'8.84'}

>  <standard_flag>  (170) 
True

>  <molecule_chembl_id>  (170) 
CHEMBL2092886

>  <target_organism>  (170) 
Homo sapiens

>  <standard_units>  (170) 
nM

>  <record_id>  (170) 
304166

>  <document_chembl_id>  (170) 
CHEMBL1123900

>  <bao_format>  (170) 
BAO_0000357

>  <data_validity_description>  (170) 
None

>  <activity_id>  (170) 
288307

>  <standard_type>  (170) 
IC50

>  <target_chembl_id>  (170) 
CHEMBL205

>  <data_validity_comment>  (170) 
None

>  <published_value>  (170) 
7.5E-9

>  <document_year>  (170) 
1987

>  <target_pref_name>  (170) 
Carbonic anhydrase II

>  <assay_chembl_id>  (170) 
CHEMBL656573

>  <standard_relation>  (170) 
=

>  <assay_description>  (170) 
In vitro inhibition against purified human erythrocyte carbonic anhydrase II was determined (acetozolamide used as control.)

>  <published_relation>  (170) 
=

>  <standard_value>  (170) 
7.5

>  <qudt_units>  (170) 
http://www.openphacts.org/units/Nanomolar

>  <target_tax_id>  (170) 
9606

>  <bao_label>  (170) 
single protein format

>  <published_units>  (170) 
M

>  <pchembl_value>  (170) 
8.13

>  <published_type>  (170) 
I50

>  <activity_comment>  (170) 
None

$$$$

     RDKit          

 16 17  0  0  0  0  0  0  0  0999 V2000
    0.0000    0.0000    0.0000 N   0  0  0  0  0  0  0  0  0  0  0  0
    0.0000    0.0000    0.0000 S   0  0  0  0  0  0  0  0  0  0  0  0
    0.0000    0.0000    0.0000 O   0  0  0  0  0  0  0  0  0  0  0  0
    0.0000    0.0000    0.0000 O   0  0  0  0  0  0  0  0  0  0  0  0
    0.0000    0.0000    0.0000 C   0  0  0  0  0  0  0  0  0  0  0  0
    0.0000    0.0000    0.0000 C   0  0  0  0  0  0  0  0  0  0  0  0
    0.0000    0.0000    0.0000 C   0  0  0  0  0  0  0  0  0  0  0  0
    0.0000    0.0000    0.0000 C   0  0  0  0  0  0  0  0  0  0  0  0
    0.0000    0.0000    0.0000 S   0  0  0  0  0  0  0  0  0  0  0  0
    0.0000    0.0000    0.0000 C   0  0  0  0  0  0  0  0  0  0  0  0
    0.0000    0.0000    0.0000 O   0  0  0  0  0  0  0  0  0  0  0  0
    0.0000    0.0000    0.0000 C   0  0  0  0  0  0  0  0  0  0  0  0
    0.0000    0.0000    0.0000 C   0  0  0  0  0  0  0  0  0  0  0  0
    0.0000    0.0000    0.0000 S   0  0  0  0  0  0  0  0  0  0  0  0
    0.0000    0.0000    0.0000 O   0  0  0  0  0  0  0  0  0  0  0  0
    0.0000    0.0000    0.0000 O   0  0  0  0  0  0  0  0  0  0  0  0
  1  2  1  0
  2  3  2  0
  2  4  2  0
  2  5  1  0
  5  6  2  0
  6  7  1  0
  7  8  2  0
  8  9  1  0
  8 10  1  0
 10 11  1  0
 10 12  1  0
 12 13  1  0
 13 14  1  0
 14 15  2  0
 14 16  2  0
  9  5  1  0
 14  7  1  0
M  END
>  <pIC50>  (171) 
7.4

>  <ChEMBL_ID>  (171) 
CHEMBL347369

>  <document_journal>  (171) 
J. Med. Chem.

>  <bao_endpoint>  (171) 
BAO_0000190

>  <potential_duplicate>  (171) 
False

>  <uo_units>  (171) 
UO_0000065

>  <canonical_smiles>  (171) 
NS(=O)(=O)c1cc2c(s1)C(O)CCS2(=O)=O

>  <parent_molecule_chembl_id>  (171) 
CHEMBL347369

>  <assay_type>  (171) 
B

>  <src_id>  (171) 
1

>  <ligand_efficiency>  (171) 
{u'le': u'0.63', u'bei': u'26.11', u'sei': u'4.64', u'lle': u'8.06'}

>  <standard_flag>  (171) 
True

>  <molecule_chembl_id>  (171) 
CHEMBL347369

>  <target_organism>  (171) 
Homo sapiens

>  <standard_units>  (171) 
nM

>  <record_id>  (171) 
304161

>  <document_chembl_id>  (171) 
CHEMBL1123900

>  <bao_format>  (171) 
BAO_0000357

>  <data_validity_description>  (171) 
None

>  <activity_id>  (171) 
291869

>  <standard_type>  (171) 
IC50

>  <target_chembl_id>  (171) 
CHEMBL205

>  <data_validity_comment>  (171) 
None

>  <published_value>  (171) 
4E-8

>  <document_year>  (171) 
1987

>  <target_pref_name>  (171) 
Carbonic anhydrase II

>  <assay_chembl_id>  (171) 
CHEMBL656573

>  <standard_relation>  (171) 
=

>  <assay_description>  (171) 
In vitro inhibition against purified human erythrocyte carbonic anhydrase II was determined (acetozolamide used as control.)

>  <published_relation>  (171) 
=

>  <standard_value>  (171) 
40

>  <qudt_units>  (171) 
http://www.openphacts.org/units/Nanomolar

>  <target_tax_id>  (171) 
9606

>  <bao_label>  (171) 
single protein format

>  <published_units>  (171) 
M

>  <pchembl_value>  (171) 
7.4

>  <published_type>  (171) 
I50

>  <activity_comment>  (171) 
None

$$$$

     RDKit          

 14 15  0  0  0  0  0  0  0  0999 V2000
    0.0000    0.0000    0.0000 N   0  0  0  0  0  0  0  0  0  0  0  0
    0.0000    0.0000    0.0000 S   0  0  0  0  0  0  0  0  0  0  0  0
    0.0000    0.0000    0.0000 O   0  0  0  0  0  0  0  0  0  0  0  0
    0.0000    0.0000    0.0000 O   0  0  0  0  0  0  0  0  0  0  0  0
    0.0000    0.0000    0.0000 C   0  0  0  0  0  0  0  0  0  0  0  0
    0.0000    0.0000    0.0000 C   0  0  0  0  0  0  0  0  0  0  0  0
    0.0000    0.0000    0.0000 C   0  0  0  0  0  0  0  0  0  0  0  0
    0.0000    0.0000    0.0000 C   0  0  0  0  0  0  0  0  0  0  0  0
    0.0000    0.0000    0.0000 O   0  0  0  0  0  0  0  0  0  0  0  0
    0.0000    0.0000    0.0000 C   0  0  0  0  0  0  0  0  0  0  0  0
    0.0000    0.0000    0.0000 C   0  0  0  0  0  0  0  0  0  0  0  0
    0.0000    0.0000    0.0000 S   0  0  0  0  0  0  0  0  0  0  0  0
    0.0000    0.0000    0.0000 C   0  0  0  0  0  0  0  0  0  0  0  0
    0.0000    0.0000    0.0000 S   0  0  0  0  0  0  0  0  0  0  0  0
  1  2  1  0
  2  3  2  0
  2  4  2  0
  2  5  1  0
  5  6  2  0
  6  7  1  0
  7  8  1  0
  8  9  2  0
  8 10  1  0
 10 11  1  0
 11 12  1  0
 12 13  1  0
 13 14  1  0
 14  5  1  0
 13  7  2  0
M  END
>  <pIC50>  (172) 
8.07

>  <ChEMBL_ID>  (172) 
CHEMBL158261

>  <document_journal>  (172) 
J. Med. Chem.

>  <bao_endpoint>  (172) 
BAO_0000190

>  <potential_duplicate>  (172) 
False

>  <uo_units>  (172) 
UO_0000065

>  <canonical_smiles>  (172) 
NS(=O)(=O)c1cc2C(=O)CCSc2s1

>  <parent_molecule_chembl_id>  (172) 
CHEMBL158261

>  <assay_type>  (172) 
B

>  <src_id>  (172) 
1

>  <ligand_efficiency>  (172) 
{u'le': u'0.79', u'bei': u'32.37', u'sei': u'5.8', u'lle': u'7.41'}

>  <standard_flag>  (172) 
True

>  <molecule_chembl_id>  (172) 
CHEMBL158261

>  <target_organism>  (172) 
Homo sapiens

>  <standard_units>  (172) 
nM

>  <record_id>  (172) 
304173

>  <document_chembl_id>  (172) 
CHEMBL1123900

>  <bao_format>  (172) 
BAO_0000357

>  <data_validity_description>  (172) 
None

>  <activity_id>  (172) 
294528

>  <standard_type>  (172) 
IC50

>  <target_chembl_id>  (172) 
CHEMBL205

>  <data_validity_comment>  (172) 
None

>  <published_value>  (172) 
8.5E-9

>  <document_year>  (172) 
1987

>  <target_pref_name>  (172) 
Carbonic anhydrase II

>  <assay_chembl_id>  (172) 
CHEMBL656573

>  <standard_relation>  (172) 
=

>  <assay_description>  (172) 
In vitro inhibition against purified human erythrocyte carbonic anhydrase II was determined (acetozolamide used as control.)

>  <published_relation>  (172) 
=

>  <standard_value>  (172) 
8.5

>  <qudt_units>  (172) 
http://www.openphacts.org/units/Nanomolar

>  <target_tax_id>  (172) 
9606

>  <bao_label>  (172) 
single protein format

>  <published_units>  (172) 
M

>  <pchembl_value>  (172) 
8.07

>  <published_type>  (172) 
I50

>  <activity_comment>  (172) 
None

$$$$

     RDKit          

 14 15  0  0  0  0  0  0  0  0999 V2000
    0.0000    0.0000    0.0000 N   0  0  0  0  0  0  0  0  0  0  0  0
    0.0000    0.0000    0.0000 S   0  0  0  0  0  0  0  0  0  0  0  0
    0.0000    0.0000    0.0000 O   0  0  0  0  0  0  0  0  0  0  0  0
    0.0000    0.0000    0.0000 O   0  0  0  0  0  0  0  0  0  0  0  0
    0.0000    0.0000    0.0000 C   0  0  0  0  0  0  0  0  0  0  0  0
    0.0000    0.0000    0.0000 C   0  0  0  0  0  0  0  0  0  0  0  0
    0.0000    0.0000    0.0000 C   0  0  0  0  0  0  0  0  0  0  0  0
    0.0000    0.0000    0.0000 C   0  0  0  0  0  0  0  0  0  0  0  0
    0.0000    0.0000    0.0000 O   0  0  0  0  0  0  0  0  0  0  0  0
    0.0000    0.0000    0.0000 C   0  0  0  0  0  0  0  0  0  0  0  0
    0.0000    0.0000    0.0000 C   0  0  0  0  0  0  0  0  0  0  0  0
    0.0000    0.0000    0.0000 S   0  0  0  0  0  0  0  0  0  0  0  0
    0.0000    0.0000    0.0000 C   0  0  0  0  0  0  0  0  0  0  0  0
    0.0000    0.0000    0.0000 S   0  0  0  0  0  0  0  0  0  0  0  0
  1  2  1  0
  2  3  2  0
  2  4  2  0
  2  5  1  0
  5  6  2  0
  6  7  1  0
  7  8  1  0
  8  9  1  0
  8 10  1  0
 10 11  1  0
 11 12  1  0
 12 13  1  0
 13 14  1  0
 14  5  1  0
 13  7  2  0
M  END
>  <pIC50>  (173) 
7.52

>  <ChEMBL_ID>  (173) 
CHEMBL158026

>  <document_journal>  (173) 
J. Med. Chem.

>  <bao_endpoint>  (173) 
BAO_0000190

>  <potential_duplicate>  (173) 
False

>  <uo_units>  (173) 
UO_0000065

>  <canonical_smiles>  (173) 
NS(=O)(=O)c1cc2C(O)CCSc2s1

>  <parent_molecule_chembl_id>  (173) 
CHEMBL158026

>  <assay_type>  (173) 
B

>  <src_id>  (173) 
1

>  <ligand_efficiency>  (173) 
{u'le': u'0.73', u'bei': u'29.93', u'sei': u'5.29', u'lle': u'7.23'}

>  <standard_flag>  (173) 
True

>  <molecule_chembl_id>  (173) 
CHEMBL158026

>  <target_organism>  (173) 
Homo sapiens

>  <standard_units>  (173) 
nM

>  <record_id>  (173) 
304162

>  <document_chembl_id>  (173) 
CHEMBL1123900

>  <bao_format>  (173) 
BAO_0000357

>  <data_validity_description>  (173) 
None

>  <activity_id>  (173) 
294533

>  <standard_type>  (173) 
IC50

>  <target_chembl_id>  (173) 
CHEMBL205

>  <data_validity_comment>  (173) 
None

>  <published_value>  (173) 
3E-8

>  <document_year>  (173) 
1987

>  <target_pref_name>  (173) 
Carbonic anhydrase II

>  <assay_chembl_id>  (173) 
CHEMBL656573

>  <standard_relation>  (173) 
=

>  <assay_description>  (173) 
In vitro inhibition against purified human erythrocyte carbonic anhydrase II was determined (acetozolamide used as control.)

>  <published_relation>  (173) 
=

>  <standard_value>  (173) 
30

>  <qudt_units>  (173) 
http://www.openphacts.org/units/Nanomolar

>  <target_tax_id>  (173) 
9606

>  <bao_label>  (173) 
single protein format

>  <published_units>  (173) 
M

>  <pchembl_value>  (173) 
7.52

>  <published_type>  (173) 
I50

>  <activity_comment>  (173) 
None

$$$$

     RDKit          

 16 17  0  0  0  0  0  0  0  0999 V2000
    0.0000    0.0000    0.0000 N   0  0  0  0  0  0  0  0  0  0  0  0
    0.0000    0.0000    0.0000 S   0  0  0  0  0  0  0  0  0  0  0  0
    0.0000    0.0000    0.0000 O   0  0  0  0  0  0  0  0  0  0  0  0
    0.0000    0.0000    0.0000 O   0  0  0  0  0  0  0  0  0  0  0  0
    0.0000    0.0000    0.0000 C   0  0  0  0  0  0  0  0  0  0  0  0
    0.0000    0.0000    0.0000 C   0  0  0  0  0  0  0  0  0  0  0  0
    0.0000    0.0000    0.0000 C   0  0  0  0  0  0  0  0  0  0  0  0
    0.0000    0.0000    0.0000 C   0  0  0  0  0  0  0  0  0  0  0  0
    0.0000    0.0000    0.0000 C   0  0  0  0  0  0  0  0  0  0  0  0
    0.0000    0.0000    0.0000 O   0  0  0  0  0  0  0  0  0  0  0  0
    0.0000    0.0000    0.0000 C   0  0  0  0  0  0  0  0  0  0  0  0
    0.0000    0.0000    0.0000 S   0  0  0  0  0  0  0  0  0  0  0  0
    0.0000    0.0000    0.0000 O   0  0  0  0  0  0  0  0  0  0  0  0
    0.0000    0.0000    0.0000 O   0  0  0  0  0  0  0  0  0  0  0  0
    0.0000    0.0000    0.0000 C   0  0  0  0  0  0  0  0  0  0  0  0
    0.0000    0.0000    0.0000 S   0  0  0  0  0  0  0  0  0  0  0  0
  1  2  1  0
  2  3  2  0
  2  4  2  0
  2  5  1  0
  5  6  2  0
  6  7  1  0
  7  8  1  0
  8  9  1  0
  9 10  1  0
  9 11  1  0
 11 12  1  0
 12 13  2  0
 12 14  2  0
 12 15  1  0
 15 16  1  0
 16  5  1  0
 15  7  2  0
M  END
>  <pIC50>  (174) 
8.0

>  <ChEMBL_ID>  (174) 
CHEMBL348573

>  <document_journal>  (174) 
J. Med. Chem.

>  <bao_endpoint>  (174) 
BAO_0000190

>  <potential_duplicate>  (174) 
False

>  <uo_units>  (174) 
UO_0000065

>  <canonical_smiles>  (174) 
NS(=O)(=O)c1cc2CC(O)CS(=O)(=O)c2s1

>  <parent_molecule_chembl_id>  (174) 
CHEMBL348573

>  <assay_type>  (174) 
B

>  <src_id>  (174) 
1

>  <ligand_efficiency>  (174) 
{u'le': u'0.68', u'bei': u'28.23', u'sei': u'5.01', u'lle': u'8.46'}

>  <standard_flag>  (174) 
True

>  <molecule_chembl_id>  (174) 
CHEMBL348573

>  <target_organism>  (174) 
Homo sapiens

>  <standard_units>  (174) 
nM

>  <record_id>  (174) 
304170

>  <document_chembl_id>  (174) 
CHEMBL1123900

>  <bao_format>  (174) 
BAO_0000357

>  <data_validity_description>  (174) 
None

>  <activity_id>  (174) 
298310

>  <standard_type>  (174) 
IC50

>  <target_chembl_id>  (174) 
CHEMBL205

>  <data_validity_comment>  (174) 
None

>  <published_value>  (174) 
1E-8

>  <document_year>  (174) 
1987

>  <target_pref_name>  (174) 
Carbonic anhydrase II

>  <assay_chembl_id>  (174) 
CHEMBL656573

>  <standard_relation>  (174) 
=

>  <assay_description>  (174) 
In vitro inhibition against purified human erythrocyte carbonic anhydrase II was determined (acetozolamide used as control.)

>  <published_relation>  (174) 
=

>  <standard_value>  (174) 
10

>  <qudt_units>  (174) 
http://www.openphacts.org/units/Nanomolar

>  <target_tax_id>  (174) 
9606

>  <bao_label>  (174) 
single protein format

>  <published_units>  (174) 
M

>  <pchembl_value>  (174) 
8

>  <published_type>  (174) 
I50

>  <activity_comment>  (174) 
None

$$$$

     RDKit          

 16 17  0  0  0  0  0  0  0  0999 V2000
    0.0000    0.0000    0.0000 N   0  0  0  0  0  0  0  0  0  0  0  0
    0.0000    0.0000    0.0000 S   0  0  0  0  0  0  0  0  0  0  0  0
    0.0000    0.0000    0.0000 O   0  0  0  0  0  0  0  0  0  0  0  0
    0.0000    0.0000    0.0000 O   0  0  0  0  0  0  0  0  0  0  0  0
    0.0000    0.0000    0.0000 C   0  0  0  0  0  0  0  0  0  0  0  0
    0.0000    0.0000    0.0000 C   0  0  0  0  0  0  0  0  0  0  0  0
    0.0000    0.0000    0.0000 C   0  0  0  0  0  0  0  0  0  0  0  0
    0.0000    0.0000    0.0000 C   0  0  0  0  0  0  0  0  0  0  0  0
    0.0000    0.0000    0.0000 S   0  0  0  0  0  0  0  0  0  0  0  0
    0.0000    0.0000    0.0000 C   0  0  0  0  0  0  0  0  0  0  0  0
    0.0000    0.0000    0.0000 O   0  0  0  0  0  0  0  0  0  0  0  0
    0.0000    0.0000    0.0000 C   0  0  0  0  0  0  0  0  0  0  0  0
    0.0000    0.0000    0.0000 C   0  0  0  0  0  0  0  0  0  0  0  0
    0.0000    0.0000    0.0000 S   0  0  0  0  0  0  0  0  0  0  0  0
    0.0000    0.0000    0.0000 O   0  0  0  0  0  0  0  0  0  0  0  0
    0.0000    0.0000    0.0000 O   0  0  0  0  0  0  0  0  0  0  0  0
  1  2  1  0
  2  3  2  0
  2  4  2  0
  2  5  1  0
  5  6  2  0
  6  7  1  0
  7  8  2  0
  8  9  1  0
  8 10  1  0
 10 11  2  0
 10 12  1  0
 12 13  1  0
 13 14  1  0
 14 15  2  0
 14 16  2  0
  9  5  1  0
 14  7  1  0
M  END
>  <pIC50>  (175) 
7.66

>  <ChEMBL_ID>  (175) 
CHEMBL158090

>  <document_journal>  (175) 
J. Med. Chem.

>  <bao_endpoint>  (175) 
BAO_0000190

>  <potential_duplicate>  (175) 
False

>  <uo_units>  (175) 
UO_0000065

>  <canonical_smiles>  (175) 
NS(=O)(=O)c1cc2c(s1)C(=O)CCS2(=O)=O

>  <parent_molecule_chembl_id>  (175) 
CHEMBL158090

>  <assay_type>  (175) 
B

>  <src_id>  (175) 
1

>  <ligand_efficiency>  (175) 
{u'le': u'0.65', u'bei': u'27.22', u'sei': u'4.9', u'lle': u'7.85'}

>  <standard_flag>  (175) 
True

>  <molecule_chembl_id>  (175) 
CHEMBL158090

>  <target_organism>  (175) 
Homo sapiens

>  <standard_units>  (175) 
nM

>  <record_id>  (175) 
304174

>  <document_chembl_id>  (175) 
CHEMBL1123900

>  <bao_format>  (175) 
BAO_0000357

>  <data_validity_description>  (175) 
None

>  <activity_id>  (175) 
300986

>  <standard_type>  (175) 
IC50

>  <target_chembl_id>  (175) 
CHEMBL205

>  <data_validity_comment>  (175) 
None

>  <published_value>  (175) 
2.2E-8

>  <document_year>  (175) 
1987

>  <target_pref_name>  (175) 
Carbonic anhydrase II

>  <assay_chembl_id>  (175) 
CHEMBL656573

>  <standard_relation>  (175) 
=

>  <assay_description>  (175) 
In vitro inhibition against purified human erythrocyte carbonic anhydrase II was determined (acetozolamide used as control.)

>  <published_relation>  (175) 
=

>  <standard_value>  (175) 
22

>  <qudt_units>  (175) 
http://www.openphacts.org/units/Nanomolar

>  <target_tax_id>  (175) 
9606

>  <bao_label>  (175) 
single protein format

>  <published_units>  (175) 
M

>  <pchembl_value>  (175) 
7.66

>  <published_type>  (175) 
I50

>  <activity_comment>  (175) 
None

$$$$

     RDKit          

 14 15  0  0  0  0  0  0  0  0999 V2000
    0.0000    0.0000    0.0000 N   0  0  0  0  0  0  0  0  0  0  0  0
    0.0000    0.0000    0.0000 S   0  0  0  0  0  0  0  0  0  0  0  0
    0.0000    0.0000    0.0000 O   0  0  0  0  0  0  0  0  0  0  0  0
    0.0000    0.0000    0.0000 O   0  0  0  0  0  0  0  0  0  0  0  0
    0.0000    0.0000    0.0000 C   0  0  0  0  0  0  0  0  0  0  0  0
    0.0000    0.0000    0.0000 C   0  0  0  0  0  0  0  0  0  0  0  0
    0.0000    0.0000    0.0000 C   0  0  0  0  0  0  0  0  0  0  0  0
    0.0000    0.0000    0.0000 S   0  0  0  0  0  0  0  0  0  0  0  0
    0.0000    0.0000    0.0000 C   0  0  0  0  0  0  0  0  0  0  0  0
    0.0000    0.0000    0.0000 C   0  0  0  0  0  0  0  0  0  0  0  0
    0.0000    0.0000    0.0000 C   0  0  0  0  0  0  0  0  0  0  0  0
    0.0000    0.0000    0.0000 O   0  0  0  0  0  0  0  0  0  0  0  0
    0.0000    0.0000    0.0000 C   0  0  0  0  0  0  0  0  0  0  0  0
    0.0000    0.0000    0.0000 S   0  0  0  0  0  0  0  0  0  0  0  0
  1  2  1  0
  2  3  2  0
  2  4  2  0
  2  5  1  0
  5  6  2  0
  6  7  1  0
  7  8  1  0
  8  9  1  0
  9 10  1  0
 10 11  1  0
 11 12  1  0
 11 13  1  0
 13 14  1  0
 14  5  1  0
 13  7  2  0
M  END
>  <pIC50>  (176) 
7.64

>  <ChEMBL_ID>  (176) 
CHEMBL352218

>  <document_journal>  (176) 
J. Med. Chem.

>  <bao_endpoint>  (176) 
BAO_0000190

>  <potential_duplicate>  (176) 
False

>  <uo_units>  (176) 
UO_0000065

>  <canonical_smiles>  (176) 
NS(=O)(=O)c1cc2SCCC(O)c2s1

>  <parent_molecule_chembl_id>  (176) 
CHEMBL352218

>  <assay_type>  (176) 
B

>  <src_id>  (176) 
1

>  <ligand_efficiency>  (176) 
{u'le': u'0.75', u'bei': u'30.39', u'sei': u'5.37', u'lle': u'7.29'}

>  <standard_flag>  (176) 
True

>  <molecule_chembl_id>  (176) 
CHEMBL352218

>  <target_organism>  (176) 
Homo sapiens

>  <standard_units>  (176) 
nM

>  <record_id>  (176) 
304175

>  <document_chembl_id>  (176) 
CHEMBL1123900

>  <bao_format>  (176) 
BAO_0000357

>  <data_validity_description>  (176) 
None

>  <activity_id>  (176) 
302098

>  <standard_type>  (176) 
IC50

>  <target_chembl_id>  (176) 
CHEMBL205

>  <data_validity_comment>  (176) 
None

>  <published_value>  (176) 
2.3E-8

>  <document_year>  (176) 
1987

>  <target_pref_name>  (176) 
Carbonic anhydrase II

>  <assay_chembl_id>  (176) 
CHEMBL656573

>  <standard_relation>  (176) 
=

>  <assay_description>  (176) 
In vitro inhibition against purified human erythrocyte carbonic anhydrase II was determined (acetozolamide used as control.)

>  <published_relation>  (176) 
=

>  <standard_value>  (176) 
23

>  <qudt_units>  (176) 
http://www.openphacts.org/units/Nanomolar

>  <target_tax_id>  (176) 
9606

>  <bao_label>  (176) 
single protein format

>  <published_units>  (176) 
M

>  <pchembl_value>  (176) 
7.64

>  <published_type>  (176) 
I50

>  <activity_comment>  (176) 
None

$$$$

     RDKit          

 15 16  0  0  0  0  0  0  0  0999 V2000
    0.0000    0.0000    0.0000 N   0  0  0  0  0  0  0  0  0  0  0  0
    0.0000    0.0000    0.0000 S   0  0  0  0  0  0  0  0  0  0  0  0
    0.0000    0.0000    0.0000 O   0  0  0  0  0  0  0  0  0  0  0  0
    0.0000    0.0000    0.0000 O   0  0  0  0  0  0  0  0  0  0  0  0
    0.0000    0.0000    0.0000 C   0  0  0  0  0  0  0  0  0  0  0  0
    0.0000    0.0000    0.0000 C   0  0  0  0  0  0  0  0  0  0  0  0
    0.0000    0.0000    0.0000 C   0  0  0  0  0  0  0  0  0  0  0  0
    0.0000    0.0000    0.0000 C   0  0  0  0  0  0  0  0  0  0  0  0
    0.0000    0.0000    0.0000 O   0  0  0  0  0  0  0  0  0  0  0  0
    0.0000    0.0000    0.0000 C   0  0  0  0  0  0  0  0  0  0  0  0
    0.0000    0.0000    0.0000 C   0  0  0  0  0  0  0  0  0  0  0  0
    0.0000    0.0000    0.0000 S   0  0  0  0  0  0  0  0  0  0  0  0
    0.0000    0.0000    0.0000 O   0  0  0  0  0  0  0  0  0  0  0  0
    0.0000    0.0000    0.0000 C   0  0  0  0  0  0  0  0  0  0  0  0
    0.0000    0.0000    0.0000 S   0  0  0  0  0  0  0  0  0  0  0  0
  1  2  1  0
  2  3  2  0
  2  4  2  0
  2  5  1  0
  5  6  2  0
  6  7  1  0
  7  8  1  0
  8  9  1  0
  8 10  1  0
 10 11  1  0
 11 12  1  0
 12 13  1  0
 12 14  1  0
 14 15  1  0
 15  5  1  0
 14  7  2  0
M  CHG  2  12   1  13  -1
M  END
>  <pIC50>  (177) 
7.0

>  <ChEMBL_ID>  (177) 
CHEMBL158363

>  <document_journal>  (177) 
J. Med. Chem.

>  <bao_endpoint>  (177) 
BAO_0000190

>  <potential_duplicate>  (177) 
False

>  <uo_units>  (177) 
UO_0000065

>  <canonical_smiles>  (177) 
NS(=O)(=O)c1cc2C(O)CC[S+]([O-])c2s1

>  <parent_molecule_chembl_id>  (177) 
CHEMBL158363

>  <assay_type>  (177) 
B

>  <src_id>  (177) 
1

>  <ligand_efficiency>  (177) 
{u'le': u'0.64', u'bei': u'26.18', u'sei': u'4.57', u'lle': u'7.82'}

>  <standard_flag>  (177) 
True

>  <molecule_chembl_id>  (177) 
CHEMBL158363

>  <target_organism>  (177) 
Homo sapiens

>  <standard_units>  (177) 
nM

>  <record_id>  (177) 
304171

>  <document_chembl_id>  (177) 
CHEMBL1123900

>  <bao_format>  (177) 
BAO_0000357

>  <data_validity_description>  (177) 
None

>  <activity_id>  (177) 
303306

>  <standard_type>  (177) 
IC50

>  <target_chembl_id>  (177) 
CHEMBL205

>  <data_validity_comment>  (177) 
None

>  <published_value>  (177) 
1E-7

>  <document_year>  (177) 
1987

>  <target_pref_name>  (177) 
Carbonic anhydrase II

>  <assay_chembl_id>  (177) 
CHEMBL656573

>  <standard_relation>  (177) 
=

>  <assay_description>  (177) 
In vitro inhibition against purified human erythrocyte carbonic anhydrase II was determined (acetozolamide used as control.)

>  <published_relation>  (177) 
=

>  <standard_value>  (177) 
100

>  <qudt_units>  (177) 
http://www.openphacts.org/units/Nanomolar

>  <target_tax_id>  (177) 
9606

>  <bao_label>  (177) 
single protein format

>  <published_units>  (177) 
M

>  <pchembl_value>  (177) 
7

>  <published_type>  (177) 
I50

>  <activity_comment>  (177) 
None

$$$$

     RDKit          

 16 15  0  0  0  0  0  0  0  0999 V2000
    0.0000    0.0000    0.0000 C   0  0  0  0  0  0  0  0  0  0  0  0
    0.0000    0.0000    0.0000 C   0  0  0  0  0  0  0  0  0  0  0  0
    0.0000    0.0000    0.0000 C   0  0  0  0  0  0  0  0  0  0  0  0
    0.0000    0.0000    0.0000 C   0  0  0  0  0  0  0  0  0  0  0  0
    0.0000    0.0000    0.0000 C   0  0  0  0  0  0  0  0  0  0  0  0
    0.0000    0.0000    0.0000 C   0  0  0  0  0  0  0  0  0  0  0  0
    0.0000    0.0000    0.0000 C   0  0  0  0  0  0  0  0  0  0  0  0
    0.0000    0.0000    0.0000 C   0  0  0  0  0  0  0  0  0  0  0  0
    0.0000    0.0000    0.0000 S   0  0  0  0  0  0  0  0  0  0  0  0
    0.0000    0.0000    0.0000 O   0  0  0  0  0  0  0  0  0  0  0  0
    0.0000    0.0000    0.0000 O   0  0  0  0  0  0  0  0  0  0  0  0
    0.0000    0.0000    0.0000 C   0  0  0  0  0  0  0  0  0  0  0  0
    0.0000    0.0000    0.0000 S   0  0  0  0  0  0  0  0  0  0  0  0
    0.0000    0.0000    0.0000 O   0  0  0  0  0  0  0  0  0  0  0  0
    0.0000    0.0000    0.0000 O   0  0  0  0  0  0  0  0  0  0  0  0
    0.0000    0.0000    0.0000 N   0  0  0  0  0  0  0  0  0  0  0  0
  1  2  1  0
  2  3  1  0
  3  4  1  0
  4  5  1  0
  5  6  1  0
  6  7  1  0
  7  8  1  0
  8  9  1  0
  9 10  2  0
  9 11  2  0
  9 12  1  0
 12 13  1  0
 13 14  2  0
 13 15  2  0
 13 16  1  0
M  END
>  <pIC50>  (178) 
7.66

>  <ChEMBL_ID>  (178) 
CHEMBL421106

>  <document_journal>  (178) 
J. Med. Chem.

>  <bao_endpoint>  (178) 
BAO_0000190

>  <potential_duplicate>  (178) 
False

>  <uo_units>  (178) 
UO_0000065

>  <canonical_smiles>  (178) 
CCCCCCCCS(=O)(=O)CS(=O)(=O)N

>  <parent_molecule_chembl_id>  (178) 
CHEMBL421106

>  <assay_type>  (178) 
B

>  <src_id>  (178) 
1

>  <ligand_efficiency>  (178) 
{u'le': u'0.65', u'bei': u'28.22', u'sei': u'6.9', u'lle': u'5.97'}

>  <standard_flag>  (178) 
True

>  <molecule_chembl_id>  (178) 
CHEMBL421106

>  <target_organism>  (178) 
Homo sapiens

>  <standard_units>  (178) 
nM

>  <record_id>  (178) 
118456

>  <document_chembl_id>  (178) 
CHEMBL1126746

>  <bao_format>  (178) 
BAO_0000357

>  <data_validity_description>  (178) 
None

>  <activity_id>  (178) 
559841

>  <standard_type>  (178) 
IC50

>  <target_chembl_id>  (178) 
CHEMBL205

>  <data_validity_comment>  (178) 
None

>  <published_value>  (178) 
22

>  <document_year>  (178) 
1993

>  <target_pref_name>  (178) 
Carbonic anhydrase II

>  <assay_chembl_id>  (178) 
CHEMBL657917

>  <standard_relation>  (178) 
=

>  <assay_description>  (178) 
In vitro inhibition of purified human erythrocyte carbonic anhydrase II

>  <published_relation>  (178) 
=

>  <standard_value>  (178) 
22

>  <qudt_units>  (178) 
http://www.openphacts.org/units/Nanomolar

>  <target_tax_id>  (178) 
9606

>  <bao_label>  (178) 
single protein format

>  <published_units>  (178) 
nM

>  <pchembl_value>  (178) 
7.66

>  <published_type>  (178) 
IC50

>  <activity_comment>  (178) 
None

$$$$

     RDKit          

 17 16  0  0  0  0  0  0  0  0999 V2000
    0.0000    0.0000    0.0000 C   0  0  0  0  0  0  0  0  0  0  0  0
    0.0000    0.0000    0.0000 C   0  0  0  0  0  0  0  0  0  0  0  0
    0.0000    0.0000    0.0000 C   0  0  0  0  0  0  0  0  0  0  0  0
    0.0000    0.0000    0.0000 C   0  0  0  0  0  0  0  0  0  0  0  0
    0.0000    0.0000    0.0000 C   0  0  0  0  0  0  0  0  0  0  0  0
    0.0000    0.0000    0.0000 C   0  0  0  0  0  0  0  0  0  0  0  0
    0.0000    0.0000    0.0000 C   0  0  0  0  0  0  0  0  0  0  0  0
    0.0000    0.0000    0.0000 C   0  0  0  0  0  0  0  0  0  0  0  0
    0.0000    0.0000    0.0000 S   0  0  0  0  0  0  0  0  0  0  0  0
    0.0000    0.0000    0.0000 O   0  0  0  0  0  0  0  0  0  0  0  0
    0.0000    0.0000    0.0000 O   0  0  0  0  0  0  0  0  0  0  0  0
    0.0000    0.0000    0.0000 C   0  0  0  0  0  0  0  0  0  0  0  0
    0.0000    0.0000    0.0000 Cl  0  0  0  0  0  0  0  0  0  0  0  0
    0.0000    0.0000    0.0000 S   0  0  0  0  0  0  0  0  0  0  0  0
    0.0000    0.0000    0.0000 O   0  0  0  0  0  0  0  0  0  0  0  0
    0.0000    0.0000    0.0000 O   0  0  0  0  0  0  0  0  0  0  0  0
    0.0000    0.0000    0.0000 N   0  0  0  0  0  0  0  0  0  0  0  0
  1  2  1  0
  2  3  1  0
  3  4  1  0
  4  5  1  0
  5  6  1  0
  6  7  1  0
  7  8  1  0
  8  9  1  0
  9 10  2  0
  9 11  2  0
  9 12  1  0
 12 13  1  0
 12 14  1  0
 14 15  2  0
 14 16  2  0
 14 17  1  0
M  END
>  <pIC50>  (179) 
7.92

>  <ChEMBL_ID>  (179) 
CHEMBL304131

>  <document_journal>  (179) 
J. Med. Chem.

>  <bao_endpoint>  (179) 
BAO_0000190

>  <potential_duplicate>  (179) 
False

>  <uo_units>  (179) 
UO_0000065

>  <canonical_smiles>  (179) 
CCCCCCCCS(=O)(=O)C(Cl)S(=O)(=O)N

>  <parent_molecule_chembl_id>  (179) 
CHEMBL304131

>  <assay_type>  (179) 
B

>  <src_id>  (179) 
1

>  <ligand_efficiency>  (179) 
{u'le': u'0.64', u'bei': u'25.9', u'sei': u'7.13', u'lle': u'5.22'}

>  <standard_flag>  (179) 
True

>  <molecule_chembl_id>  (179) 
CHEMBL304131

>  <target_organism>  (179) 
Homo sapiens

>  <standard_units>  (179) 
nM

>  <record_id>  (179) 
118462

>  <document_chembl_id>  (179) 
CHEMBL1126746

>  <bao_format>  (179) 
BAO_0000357

>  <data_validity_description>  (179) 
None

>  <activity_id>  (179) 
559843

>  <standard_type>  (179) 
IC50

>  <target_chembl_id>  (179) 
CHEMBL205

>  <data_validity_comment>  (179) 
None

>  <published_value>  (179) 
12

>  <document_year>  (179) 
1993

>  <target_pref_name>  (179) 
Carbonic anhydrase II

>  <assay_chembl_id>  (179) 
CHEMBL657917

>  <standard_relation>  (179) 
=

>  <assay_description>  (179) 
In vitro inhibition of purified human erythrocyte carbonic anhydrase II

>  <published_relation>  (179) 
=

>  <standard_value>  (179) 
12

>  <qudt_units>  (179) 
http://www.openphacts.org/units/Nanomolar

>  <target_tax_id>  (179) 
9606

>  <bao_label>  (179) 
single protein format

>  <published_units>  (179) 
nM

>  <pchembl_value>  (179) 
7.92

>  <published_type>  (179) 
IC50

>  <activity_comment>  (179) 
None

$$$$

     RDKit          

 18 17  0  0  0  0  0  0  0  0999 V2000
    0.0000    0.0000    0.0000 C   0  0  0  0  0  0  0  0  0  0  0  0
    0.0000    0.0000    0.0000 C   0  0  0  0  0  0  0  0  0  0  0  0
    0.0000    0.0000    0.0000 C   0  0  0  0  0  0  0  0  0  0  0  0
    0.0000    0.0000    0.0000 C   0  0  0  0  0  0  0  0  0  0  0  0
    0.0000    0.0000    0.0000 C   0  0  0  0  0  0  0  0  0  0  0  0
    0.0000    0.0000    0.0000 C   0  0  0  0  0  0  0  0  0  0  0  0
    0.0000    0.0000    0.0000 C   0  0  0  0  0  0  0  0  0  0  0  0
    0.0000    0.0000    0.0000 C   0  0  0  0  0  0  0  0  0  0  0  0
    0.0000    0.0000    0.0000 S   0  0  0  0  0  0  0  0  0  0  0  0
    0.0000    0.0000    0.0000 O   0  0  0  0  0  0  0  0  0  0  0  0
    0.0000    0.0000    0.0000 O   0  0  0  0  0  0  0  0  0  0  0  0
    0.0000    0.0000    0.0000 C   0  0  0  0  0  0  0  0  0  0  0  0
    0.0000    0.0000    0.0000 Cl  0  0  0  0  0  0  0  0  0  0  0  0
    0.0000    0.0000    0.0000 Cl  0  0  0  0  0  0  0  0  0  0  0  0
    0.0000    0.0000    0.0000 S   0  0  0  0  0  0  0  0  0  0  0  0
    0.0000    0.0000    0.0000 O   0  0  0  0  0  0  0  0  0  0  0  0
    0.0000    0.0000    0.0000 O   0  0  0  0  0  0  0  0  0  0  0  0
    0.0000    0.0000    0.0000 N   0  0  0  0  0  0  0  0  0  0  0  0
  1  2  1  0
  2  3  1  0
  3  4  1  0
  4  5  1  0
  5  6  1  0
  6  7  1  0
  7  8  1  0
  8  9  1  0
  9 10  2  0
  9 11  2  0
  9 12  1  0
 12 13  1  0
 12 14  1  0
 12 15  1  0
 15 16  2  0
 15 17  2  0
 15 18  1  0
M  END
>  <pIC50>  (180) 
6.7

>  <ChEMBL_ID>  (180) 
CHEMBL68840

>  <document_journal>  (180) 
J. Med. Chem.

>  <bao_endpoint>  (180) 
BAO_0000190

>  <potential_duplicate>  (180) 
False

>  <uo_units>  (180) 
UO_0000065

>  <canonical_smiles>  (180) 
CCCCCCCCS(=O)(=O)C(Cl)(Cl)S(=O)(=O)N

>  <parent_molecule_chembl_id>  (180) 
CHEMBL68840

>  <assay_type>  (180) 
B

>  <src_id>  (180) 
1

>  <ligand_efficiency>  (180) 
{u'le': u'0.51', u'bei': u'19.69', u'sei': u'6.03', u'lle': u'2.4'}

>  <standard_flag>  (180) 
True

>  <molecule_chembl_id>  (180) 
CHEMBL68840

>  <target_organism>  (180) 
Homo sapiens

>  <standard_units>  (180) 
nM

>  <record_id>  (180) 
118464

>  <document_chembl_id>  (180) 
CHEMBL1126746

>  <bao_format>  (180) 
BAO_0000357

>  <data_validity_description>  (180) 
None

>  <activity_id>  (180) 
560865

>  <standard_type>  (180) 
IC50

>  <target_chembl_id>  (180) 
CHEMBL205

>  <data_validity_comment>  (180) 
None

>  <published_value>  (180) 
200

>  <document_year>  (180) 
1993

>  <target_pref_name>  (180) 
Carbonic anhydrase II

>  <assay_chembl_id>  (180) 
CHEMBL657917

>  <standard_relation>  (180) 
=

>  <assay_description>  (180) 
In vitro inhibition of purified human erythrocyte carbonic anhydrase II

>  <published_relation>  (180) 
=

>  <standard_value>  (180) 
200

>  <qudt_units>  (180) 
http://www.openphacts.org/units/Nanomolar

>  <target_tax_id>  (180) 
9606

>  <bao_label>  (180) 
single protein format

>  <published_units>  (180) 
nM

>  <pchembl_value>  (180) 
6.7

>  <published_type>  (180) 
IC50

>  <activity_comment>  (180) 
None

$$$$

     RDKit          

  8  7  0  0  0  0  0  0  0  0999 V2000
    0.0000    0.0000    0.0000 N   0  0  0  0  0  0  0  0  0  0  0  0
    0.0000    0.0000    0.0000 S   0  0  0  0  0  0  0  0  0  0  0  0
    0.0000    0.0000    0.0000 O   0  0  0  0  0  0  0  0  0  0  0  0
    0.0000    0.0000    0.0000 O   0  0  0  0  0  0  0  0  0  0  0  0
    0.0000    0.0000    0.0000 C   0  0  0  0  0  0  0  0  0  0  0  0
    0.0000    0.0000    0.0000 F   0  0  0  0  0  0  0  0  0  0  0  0
    0.0000    0.0000    0.0000 F   0  0  0  0  0  0  0  0  0  0  0  0
    0.0000    0.0000    0.0000 F   0  0  0  0  0  0  0  0  0  0  0  0
  1  2  1  0
  2  3  2  0
  2  4  2  0
  2  5  1  0
  5  6  1  0
  5  7  1  0
  5  8  1  0
M  END
>  <pIC50>  (181) 
7.89

>  <ChEMBL_ID>  (181) 
CHEMBL67511

>  <document_journal>  (181) 
J. Med. Chem.

>  <bao_endpoint>  (181) 
BAO_0000190

>  <potential_duplicate>  (181) 
False

>  <uo_units>  (181) 
UO_0000065

>  <canonical_smiles>  (181) 
NS(=O)(=O)C(F)(F)F

>  <parent_molecule_chembl_id>  (181) 
CHEMBL67511

>  <assay_type>  (181) 
B

>  <src_id>  (181) 
1

>  <ligand_efficiency>  (181) 
{u'le': u'1.35', u'bei': u'52.89', u'sei': u'11.51', u'lle': u'6.8'}

>  <standard_flag>  (181) 
True

>  <molecule_chembl_id>  (181) 
CHEMBL67511

>  <target_organism>  (181) 
Homo sapiens

>  <standard_units>  (181) 
nM

>  <record_id>  (181) 
118454

>  <document_chembl_id>  (181) 
CHEMBL1126746

>  <bao_format>  (181) 
BAO_0000357

>  <data_validity_description>  (181) 
None

>  <activity_id>  (181) 
561952

>  <standard_type>  (181) 
IC50

>  <target_chembl_id>  (181) 
CHEMBL205

>  <data_validity_comment>  (181) 
None

>  <published_value>  (181) 
13

>  <document_year>  (181) 
1993

>  <target_pref_name>  (181) 
Carbonic anhydrase II

>  <assay_chembl_id>  (181) 
CHEMBL657917

>  <standard_relation>  (181) 
=

>  <assay_description>  (181) 
In vitro inhibition of purified human erythrocyte carbonic anhydrase II

>  <published_relation>  (181) 
=

>  <standard_value>  (181) 
13

>  <qudt_units>  (181) 
http://www.openphacts.org/units/Nanomolar

>  <target_tax_id>  (181) 
9606

>  <bao_label>  (181) 
single protein format

>  <published_units>  (181) 
nM

>  <pchembl_value>  (181) 
7.89

>  <published_type>  (181) 
IC50

>  <activity_comment>  (181) 
None

$$$$

     RDKit          

 17 16  0  0  0  0  0  0  0  0999 V2000
    0.0000    0.0000    0.0000 C   0  0  0  0  0  0  0  0  0  0  0  0
    0.0000    0.0000    0.0000 C   0  0  0  0  0  0  0  0  0  0  0  0
    0.0000    0.0000    0.0000 C   0  0  0  0  0  0  0  0  0  0  0  0
    0.0000    0.0000    0.0000 C   0  0  0  0  0  0  0  0  0  0  0  0
    0.0000    0.0000    0.0000 C   0  0  0  0  0  0  0  0  0  0  0  0
    0.0000    0.0000    0.0000 C   0  0  0  0  0  0  0  0  0  0  0  0
    0.0000    0.0000    0.0000 C   0  0  0  0  0  0  0  0  0  0  0  0
    0.0000    0.0000    0.0000 C   0  0  0  0  0  0  0  0  0  0  0  0
    0.0000    0.0000    0.0000 S   0  0  0  0  0  0  0  0  0  0  0  0
    0.0000    0.0000    0.0000 O   0  0  0  0  0  0  0  0  0  0  0  0
    0.0000    0.0000    0.0000 O   0  0  0  0  0  0  0  0  0  0  0  0
    0.0000    0.0000    0.0000 C   0  0  0  0  0  0  0  0  0  0  0  0
    0.0000    0.0000    0.0000 F   0  0  0  0  0  0  0  0  0  0  0  0
    0.0000    0.0000    0.0000 S   0  0  0  0  0  0  0  0  0  0  0  0
    0.0000    0.0000    0.0000 O   0  0  0  0  0  0  0  0  0  0  0  0
    0.0000    0.0000    0.0000 O   0  0  0  0  0  0  0  0  0  0  0  0
    0.0000    0.0000    0.0000 N   0  0  0  0  0  0  0  0  0  0  0  0
  1  2  1  0
  2  3  1  0
  3  4  1  0
  4  5  1  0
  5  6  1  0
  6  7  1  0
  7  8  1  0
  8  9  1  0
  9 10  2  0
  9 11  2  0
  9 12  1  0
 12 13  1  0
 12 14  1  0
 14 15  2  0
 14 16  2  0
 14 17  1  0
M  END
>  <pIC50>  (182) 
8.52

>  <ChEMBL_ID>  (182) 
CHEMBL302780

>  <document_journal>  (182) 
J. Med. Chem.

>  <bao_endpoint>  (182) 
BAO_0000190

>  <potential_duplicate>  (182) 
False

>  <uo_units>  (182) 
UO_0000065

>  <canonical_smiles>  (182) 
CCCCCCCCS(=O)(=O)C(F)S(=O)(=O)N

>  <parent_molecule_chembl_id>  (182) 
CHEMBL302780

>  <assay_type>  (182) 
B

>  <src_id>  (182) 
1

>  <ligand_efficiency>  (182) 
{u'le': u'0.68', u'bei': u'29.45', u'sei': u'7.67', u'lle': u'6.01'}

>  <standard_flag>  (182) 
True

>  <molecule_chembl_id>  (182) 
CHEMBL302780

>  <target_organism>  (182) 
Homo sapiens

>  <standard_units>  (182) 
nM

>  <record_id>  (182) 
118463

>  <document_chembl_id>  (182) 
CHEMBL1126746

>  <bao_format>  (182) 
BAO_0000357

>  <data_validity_description>  (182) 
None

>  <activity_id>  (182) 
567870

>  <standard_type>  (182) 
IC50

>  <target_chembl_id>  (182) 
CHEMBL205

>  <data_validity_comment>  (182) 
None

>  <published_value>  (182) 
3

>  <document_year>  (182) 
1993

>  <target_pref_name>  (182) 
Carbonic anhydrase II

>  <assay_chembl_id>  (182) 
CHEMBL657917

>  <standard_relation>  (182) 
=

>  <assay_description>  (182) 
In vitro inhibition of purified human erythrocyte carbonic anhydrase II

>  <published_relation>  (182) 
=

>  <standard_value>  (182) 
3

>  <qudt_units>  (182) 
http://www.openphacts.org/units/Nanomolar

>  <target_tax_id>  (182) 
9606

>  <bao_label>  (182) 
single protein format

>  <published_units>  (182) 
nM

>  <pchembl_value>  (182) 
8.52

>  <published_type>  (182) 
IC50

>  <activity_comment>  (182) 
None

$$$$

     RDKit          

 14 14  0  0  0  0  0  0  0  0999 V2000
    0.0000    0.0000    0.0000 N   0  0  0  0  0  0  0  0  0  0  0  0
    0.0000    0.0000    0.0000 S   0  0  0  0  0  0  0  0  0  0  0  0
    0.0000    0.0000    0.0000 O   0  0  0  0  0  0  0  0  0  0  0  0
    0.0000    0.0000    0.0000 O   0  0  0  0  0  0  0  0  0  0  0  0
    0.0000    0.0000    0.0000 C   0  0  0  0  0  0  0  0  0  0  0  0
    0.0000    0.0000    0.0000 S   0  0  0  0  0  0  0  0  0  0  0  0
    0.0000    0.0000    0.0000 C   0  0  0  0  0  0  0  0  0  0  0  0
    0.0000    0.0000    0.0000 C   0  0  0  0  0  0  0  0  0  0  0  0
    0.0000    0.0000    0.0000 C   0  0  0  0  0  0  0  0  0  0  0  0
    0.0000    0.0000    0.0000 C   0  0  0  0  0  0  0  0  0  0  0  0
    0.0000    0.0000    0.0000 C   0  0  0  0  0  0  0  0  0  0  0  0
    0.0000    0.0000    0.0000 C   0  0  0  0  0  0  0  0  0  0  0  0
    0.0000    0.0000    0.0000 C   0  0  0  0  0  0  0  0  0  0  0  0
    0.0000    0.0000    0.0000 C   0  0  0  0  0  0  0  0  0  0  0  0
  1  2  1  0
  2  3  2  0
  2  4  2  0
  2  5  1  0
  5  6  1  0
  6  7  1  0
  7  8  1  0
  8  9  1  0
  9 10  2  0
 10 11  1  0
 11 12  2  0
 12 13  1  0
 13 14  2  0
 14  9  1  0
M  END
>  <pIC50>  (183) 
5.7

>  <ChEMBL_ID>  (183) 
CHEMBL66513

>  <document_journal>  (183) 
J. Med. Chem.

>  <bao_endpoint>  (183) 
BAO_0000190

>  <potential_duplicate>  (183) 
False

>  <uo_units>  (183) 
UO_0000065

>  <canonical_smiles>  (183) 
NS(=O)(=O)CSCCc1ccccc1

>  <parent_molecule_chembl_id>  (183) 
CHEMBL66513

>  <assay_type>  (183) 
B

>  <src_id>  (183) 
1

>  <ligand_efficiency>  (183) 
{u'le': u'0.56', u'bei': u'24.63', u'sei': u'6.07', u'lle': u'4.24'}

>  <standard_flag>  (183) 
True

>  <molecule_chembl_id>  (183) 
CHEMBL66513

>  <target_organism>  (183) 
Homo sapiens

>  <standard_units>  (183) 
nM

>  <record_id>  (183) 
118448

>  <document_chembl_id>  (183) 
CHEMBL1126746

>  <bao_format>  (183) 
BAO_0000357

>  <data_validity_description>  (183) 
None

>  <activity_id>  (183) 
567902

>  <standard_type>  (183) 
IC50

>  <target_chembl_id>  (183) 
CHEMBL205

>  <data_validity_comment>  (183) 
None

>  <published_value>  (183) 
2000

>  <document_year>  (183) 
1993

>  <target_pref_name>  (183) 
Carbonic anhydrase II

>  <assay_chembl_id>  (183) 
CHEMBL657917

>  <standard_relation>  (183) 
=

>  <assay_description>  (183) 
In vitro inhibition of purified human erythrocyte carbonic anhydrase II

>  <published_relation>  (183) 
=

>  <standard_value>  (183) 
2000

>  <qudt_units>  (183) 
http://www.openphacts.org/units/Nanomolar

>  <target_tax_id>  (183) 
9606

>  <bao_label>  (183) 
single protein format

>  <published_units>  (183) 
nM

>  <pchembl_value>  (183) 
5.7

>  <published_type>  (183) 
IC50

>  <activity_comment>  (183) 
None

$$$$

     RDKit          

 16 16  0  0  0  0  0  0  0  0999 V2000
    0.0000    0.0000    0.0000 N   0  0  0  0  0  0  0  0  0  0  0  0
    0.0000    0.0000    0.0000 S   0  0  0  0  0  0  0  0  0  0  0  0
    0.0000    0.0000    0.0000 O   0  0  0  0  0  0  0  0  0  0  0  0
    0.0000    0.0000    0.0000 O   0  0  0  0  0  0  0  0  0  0  0  0
    0.0000    0.0000    0.0000 C   0  0  0  0  0  0  0  0  0  0  0  0
    0.0000    0.0000    0.0000 S   0  0  0  0  0  0  0  0  0  0  0  0
    0.0000    0.0000    0.0000 O   0  0  0  0  0  0  0  0  0  0  0  0
    0.0000    0.0000    0.0000 O   0  0  0  0  0  0  0  0  0  0  0  0
    0.0000    0.0000    0.0000 C   0  0  0  0  0  0  0  0  0  0  0  0
    0.0000    0.0000    0.0000 C   0  0  0  0  0  0  0  0  0  0  0  0
    0.0000    0.0000    0.0000 C   0  0  0  0  0  0  0  0  0  0  0  0
    0.0000    0.0000    0.0000 C   0  0  0  0  0  0  0  0  0  0  0  0
    0.0000    0.0000    0.0000 C   0  0  0  0  0  0  0  0  0  0  0  0
    0.0000    0.0000    0.0000 C   0  0  0  0  0  0  0  0  0  0  0  0
    0.0000    0.0000    0.0000 C   0  0  0  0  0  0  0  0  0  0  0  0
    0.0000    0.0000    0.0000 C   0  0  0  0  0  0  0  0  0  0  0  0
  1  2  1  0
  2  3  2  0
  2  4  2  0
  2  5  1  0
  5  6  1  0
  6  7  2  0
  6  8  2  0
  6  9  1  0
  9 10  1  0
 10 11  1  0
 11 12  2  0
 12 13  1  0
 13 14  2  0
 14 15  1  0
 15 16  2  0
 16 11  1  0
M  END
>  <pIC50>  (184) 
7.0

>  <ChEMBL_ID>  (184) 
CHEMBL67823

>  <document_journal>  (184) 
J. Med. Chem.

>  <bao_endpoint>  (184) 
BAO_0000190

>  <potential_duplicate>  (184) 
False

>  <uo_units>  (184) 
UO_0000065

>  <canonical_smiles>  (184) 
NS(=O)(=O)CS(=O)(=O)CCc1ccccc1

>  <parent_molecule_chembl_id>  (184) 
CHEMBL67823

>  <assay_type>  (184) 
B

>  <src_id>  (184) 
1

>  <ligand_efficiency>  (184) 
{u'le': u'0.6', u'bei': u'26.58', u'sei': u'6.3', u'lle': u'6.56'}

>  <standard_flag>  (184) 
True

>  <molecule_chembl_id>  (184) 
CHEMBL67823

>  <target_organism>  (184) 
Homo sapiens

>  <standard_units>  (184) 
nM

>  <record_id>  (184) 
118461

>  <document_chembl_id>  (184) 
CHEMBL1126746

>  <bao_format>  (184) 
BAO_0000357

>  <data_validity_description>  (184) 
None

>  <activity_id>  (184) 
570581

>  <standard_type>  (184) 
IC50

>  <target_chembl_id>  (184) 
CHEMBL205

>  <data_validity_comment>  (184) 
None

>  <published_value>  (184) 
100

>  <document_year>  (184) 
1993

>  <target_pref_name>  (184) 
Carbonic anhydrase II

>  <assay_chembl_id>  (184) 
CHEMBL657917

>  <standard_relation>  (184) 
=

>  <assay_description>  (184) 
In vitro inhibition of purified human erythrocyte carbonic anhydrase II

>  <published_relation>  (184) 
=

>  <standard_value>  (184) 
100

>  <qudt_units>  (184) 
http://www.openphacts.org/units/Nanomolar

>  <target_tax_id>  (184) 
9606

>  <bao_label>  (184) 
single protein format

>  <published_units>  (184) 
nM

>  <pchembl_value>  (184) 
7

>  <published_type>  (184) 
IC50

>  <activity_comment>  (184) 
None

$$$$

     RDKit          

 17 16  0  0  0  0  0  0  0  0999 V2000
    0.0000    0.0000    0.0000 C   0  0  0  0  0  0  0  0  0  0  0  0
    0.0000    0.0000    0.0000 O   0  0  0  0  0  0  0  0  0  0  0  0
    0.0000    0.0000    0.0000 C   0  0  0  0  0  0  0  0  0  0  0  0
    0.0000    0.0000    0.0000 C   0  0  0  0  0  0  0  0  0  0  0  0
    0.0000    0.0000    0.0000 O   0  0  0  0  0  0  0  0  0  0  0  0
    0.0000    0.0000    0.0000 C   0  0  0  0  0  0  0  0  0  0  0  0
    0.0000    0.0000    0.0000 C   0  0  0  0  0  0  0  0  0  0  0  0
    0.0000    0.0000    0.0000 O   0  0  0  0  0  0  0  0  0  0  0  0
    0.0000    0.0000    0.0000 C   0  0  0  0  0  0  0  0  0  0  0  0
    0.0000    0.0000    0.0000 S   0  0  0  0  0  0  0  0  0  0  0  0
    0.0000    0.0000    0.0000 O   0  0  0  0  0  0  0  0  0  0  0  0
    0.0000    0.0000    0.0000 O   0  0  0  0  0  0  0  0  0  0  0  0
    0.0000    0.0000    0.0000 C   0  0  0  0  0  0  0  0  0  0  0  0
    0.0000    0.0000    0.0000 S   0  0  0  0  0  0  0  0  0  0  0  0
    0.0000    0.0000    0.0000 O   0  0  0  0  0  0  0  0  0  0  0  0
    0.0000    0.0000    0.0000 O   0  0  0  0  0  0  0  0  0  0  0  0
    0.0000    0.0000    0.0000 N   0  0  0  0  0  0  0  0  0  0  0  0
  1  2  1  0
  2  3  1  0
  3  4  1  0
  4  5  1  0
  5  6  1  0
  6  7  1  0
  7  8  1  0
  8  9  1  0
  9 10  1  0
 10 11  2  0
 10 12  2  0
 10 13  1  0
 13 14  1  0
 14 15  2  0
 14 16  2  0
 14 17  1  0
M  END
>  <pIC50>  (185) 
5.89

>  <ChEMBL_ID>  (185) 
CHEMBL66129

>  <document_journal>  (185) 
J. Med. Chem.

>  <bao_endpoint>  (185) 
BAO_0000190

>  <potential_duplicate>  (185) 
False

>  <uo_units>  (185) 
UO_0000065

>  <canonical_smiles>  (185) 
COCCOCCOCS(=O)(=O)CS(=O)(=O)N

>  <parent_molecule_chembl_id>  (185) 
CHEMBL66129

>  <assay_type>  (185) 
B

>  <src_id>  (185) 
1

>  <ligand_efficiency>  (185) 
{u'le': u'0.47', u'bei': u'20.2', u'sei': u'4.24', u'lle': u'7.76'}

>  <standard_flag>  (185) 
True

>  <molecule_chembl_id>  (185) 
CHEMBL66129

>  <target_organism>  (185) 
Homo sapiens

>  <standard_units>  (185) 
nM

>  <record_id>  (185) 
118465

>  <document_chembl_id>  (185) 
CHEMBL1126746

>  <bao_format>  (185) 
BAO_0000357

>  <data_validity_description>  (185) 
None

>  <activity_id>  (185) 
571818

>  <standard_type>  (185) 
IC50

>  <target_chembl_id>  (185) 
CHEMBL205

>  <data_validity_comment>  (185) 
None

>  <published_value>  (185) 
1300

>  <document_year>  (185) 
1993

>  <target_pref_name>  (185) 
Carbonic anhydrase II

>  <assay_chembl_id>  (185) 
CHEMBL657917

>  <standard_relation>  (185) 
=

>  <assay_description>  (185) 
In vitro inhibition of purified human erythrocyte carbonic anhydrase II

>  <published_relation>  (185) 
=

>  <standard_value>  (185) 
1300

>  <qudt_units>  (185) 
http://www.openphacts.org/units/Nanomolar

>  <target_tax_id>  (185) 
9606

>  <bao_label>  (185) 
single protein format

>  <published_units>  (185) 
nM

>  <pchembl_value>  (185) 
5.89

>  <published_type>  (185) 
IC50

>  <activity_comment>  (185) 
None

$$$$

     RDKit          

 17 17  0  0  0  0  0  0  0  0999 V2000
    0.0000    0.0000    0.0000 N   0  0  0  0  0  0  0  0  0  0  0  0
    0.0000    0.0000    0.0000 S   0  0  0  0  0  0  0  0  0  0  0  0
    0.0000    0.0000    0.0000 O   0  0  0  0  0  0  0  0  0  0  0  0
    0.0000    0.0000    0.0000 O   0  0  0  0  0  0  0  0  0  0  0  0
    0.0000    0.0000    0.0000 C   0  0  0  0  0  0  0  0  0  0  0  0
    0.0000    0.0000    0.0000 S   0  0  0  0  0  0  0  0  0  0  0  0
    0.0000    0.0000    0.0000 O   0  0  0  0  0  0  0  0  0  0  0  0
    0.0000    0.0000    0.0000 O   0  0  0  0  0  0  0  0  0  0  0  0
    0.0000    0.0000    0.0000 C   0  0  0  0  0  0  0  0  0  0  0  0
    0.0000    0.0000    0.0000 C   0  0  0  0  0  0  0  0  0  0  0  0
    0.0000    0.0000    0.0000 C   0  0  0  0  0  0  0  0  0  0  0  0
    0.0000    0.0000    0.0000 C   0  0  0  0  0  0  0  0  0  0  0  0
    0.0000    0.0000    0.0000 C   0  0  0  0  0  0  0  0  0  0  0  0
    0.0000    0.0000    0.0000 C   0  0  0  0  0  0  0  0  0  0  0  0
    0.0000    0.0000    0.0000 C   0  0  0  0  0  0  0  0  0  0  0  0
    0.0000    0.0000    0.0000 C   0  0  0  0  0  0  0  0  0  0  0  0
    0.0000    0.0000    0.0000 C   0  0  0  0  0  0  0  0  0  0  0  0
  1  2  1  0
  2  3  2  0
  2  4  2  0
  2  5  1  0
  5  6  1  0
  6  7  2  0
  6  8  2  0
  6  9  1  0
  9 10  1  0
 10 11  1  0
 11 12  1  0
 12 13  2  0
 13 14  1  0
 14 15  2  0
 15 16  1  0
 16 17  2  0
 17 12  1  0
M  END
>  <pIC50>  (186) 
6.72

>  <ChEMBL_ID>  (186) 
CHEMBL304744

>  <document_journal>  (186) 
J. Med. Chem.

>  <bao_endpoint>  (186) 
BAO_0000190

>  <potential_duplicate>  (186) 
False

>  <uo_units>  (186) 
UO_0000065

>  <canonical_smiles>  (186) 
NS(=O)(=O)CS(=O)(=O)CCCc1ccccc1

>  <parent_molecule_chembl_id>  (186) 
CHEMBL304744

>  <assay_type>  (186) 
B

>  <src_id>  (186) 
1

>  <ligand_efficiency>  (186) 
{u'le': u'0.54', u'bei': u'24.23', u'sei': u'6.05', u'lle': u'5.82'}

>  <standard_flag>  (186) 
True

>  <molecule_chembl_id>  (186) 
CHEMBL304744

>  <target_organism>  (186) 
Homo sapiens

>  <standard_units>  (186) 
nM

>  <record_id>  (186) 
118459

>  <document_chembl_id>  (186) 
CHEMBL1126746

>  <bao_format>  (186) 
BAO_0000357

>  <data_validity_description>  (186) 
None

>  <activity_id>  (186) 
573121

>  <standard_type>  (186) 
IC50

>  <target_chembl_id>  (186) 
CHEMBL205

>  <data_validity_comment>  (186) 
None

>  <published_value>  (186) 
190

>  <document_year>  (186) 
1993

>  <target_pref_name>  (186) 
Carbonic anhydrase II

>  <assay_chembl_id>  (186) 
CHEMBL657917

>  <standard_relation>  (186) 
=

>  <assay_description>  (186) 
In vitro inhibition of purified human erythrocyte carbonic anhydrase II

>  <published_relation>  (186) 
=

>  <standard_value>  (186) 
190

>  <qudt_units>  (186) 
http://www.openphacts.org/units/Nanomolar

>  <target_tax_id>  (186) 
9606

>  <bao_label>  (186) 
single protein format

>  <published_units>  (186) 
nM

>  <pchembl_value>  (186) 
6.72

>  <published_type>  (186) 
IC50

>  <activity_comment>  (186) 
None

$$$$

     RDKit          

 13 13  0  0  0  0  0  0  0  0999 V2000
    0.0000    0.0000    0.0000 N   0  0  0  0  0  0  0  0  0  0  0  0
    0.0000    0.0000    0.0000 S   0  0  0  0  0  0  0  0  0  0  0  0
    0.0000    0.0000    0.0000 O   0  0  0  0  0  0  0  0  0  0  0  0
    0.0000    0.0000    0.0000 O   0  0  0  0  0  0  0  0  0  0  0  0
    0.0000    0.0000    0.0000 C   0  0  0  0  0  0  0  0  0  0  0  0
    0.0000    0.0000    0.0000 S   0  0  0  0  0  0  0  0  0  0  0  0
    0.0000    0.0000    0.0000 C   0  0  0  0  0  0  0  0  0  0  0  0
    0.0000    0.0000    0.0000 C   0  0  0  0  0  0  0  0  0  0  0  0
    0.0000    0.0000    0.0000 C   0  0  0  0  0  0  0  0  0  0  0  0
    0.0000    0.0000    0.0000 C   0  0  0  0  0  0  0  0  0  0  0  0
    0.0000    0.0000    0.0000 O   0  0  0  0  0  0  0  0  0  0  0  0
    0.0000    0.0000    0.0000 C   0  0  0  0  0  0  0  0  0  0  0  0
    0.0000    0.0000    0.0000 C   0  0  0  0  0  0  0  0  0  0  0  0
  1  2  1  0
  2  3  2  0
  2  4  2  0
  2  5  1  0
  5  6  1  0
  6  7  1  0
  7  8  2  0
  8  9  1  0
  9 10  2  0
 10 11  1  0
 10 12  1  0
 12 13  2  0
 13  7  1  0
M  END
>  <pIC50>  (187) 
5.54

>  <ChEMBL_ID>  (187) 
CHEMBL69926

>  <document_journal>  (187) 
J. Med. Chem.

>  <bao_endpoint>  (187) 
BAO_0000190

>  <potential_duplicate>  (187) 
False

>  <uo_units>  (187) 
UO_0000065

>  <canonical_smiles>  (187) 
NS(=O)(=O)CSc1ccc(O)cc1

>  <parent_molecule_chembl_id>  (187) 
CHEMBL69926

>  <assay_type>  (187) 
B

>  <src_id>  (187) 
1

>  <ligand_efficiency>  (187) 
{u'le': u'0.58', u'bei': u'25.25', u'sei': u'4.85', u'lle': u'4.65'}

>  <standard_flag>  (187) 
True

>  <molecule_chembl_id>  (187) 
CHEMBL69926

>  <target_organism>  (187) 
Homo sapiens

>  <standard_units>  (187) 
nM

>  <record_id>  (187) 
118450

>  <document_chembl_id>  (187) 
CHEMBL1126746

>  <bao_format>  (187) 
BAO_0000357

>  <data_validity_description>  (187) 
None

>  <activity_id>  (187) 
576748

>  <standard_type>  (187) 
IC50

>  <target_chembl_id>  (187) 
CHEMBL205

>  <data_validity_comment>  (187) 
None

>  <published_value>  (187) 
2900

>  <document_year>  (187) 
1993

>  <target_pref_name>  (187) 
Carbonic anhydrase II

>  <assay_chembl_id>  (187) 
CHEMBL657917

>  <standard_relation>  (187) 
=

>  <assay_description>  (187) 
In vitro inhibition of purified human erythrocyte carbonic anhydrase II

>  <published_relation>  (187) 
=

>  <standard_value>  (187) 
2900

>  <qudt_units>  (187) 
http://www.openphacts.org/units/Nanomolar

>  <target_tax_id>  (187) 
9606

>  <bao_label>  (187) 
single protein format

>  <published_units>  (187) 
nM

>  <pchembl_value>  (187) 
5.54

>  <published_type>  (187) 
IC50

>  <activity_comment>  (187) 
None

$$$$

     RDKit          

 14 13  0  0  0  0  0  0  0  0999 V2000
    0.0000    0.0000    0.0000 C   0  0  0  0  0  0  0  0  0  0  0  0
    0.0000    0.0000    0.0000 C   0  0  0  0  0  0  0  0  0  0  0  0
    0.0000    0.0000    0.0000 C   0  0  0  0  0  0  0  0  0  0  0  0
    0.0000    0.0000    0.0000 C   0  0  0  0  0  0  0  0  0  0  0  0
    0.0000    0.0000    0.0000 C   0  0  0  0  0  0  0  0  0  0  0  0
    0.0000    0.0000    0.0000 C   0  0  0  0  0  0  0  0  0  0  0  0
    0.0000    0.0000    0.0000 C   0  0  0  0  0  0  0  0  0  0  0  0
    0.0000    0.0000    0.0000 C   0  0  0  0  0  0  0  0  0  0  0  0
    0.0000    0.0000    0.0000 S   0  0  0  0  0  0  0  0  0  0  0  0
    0.0000    0.0000    0.0000 C   0  0  0  0  0  0  0  0  0  0  0  0
    0.0000    0.0000    0.0000 S   0  0  0  0  0  0  0  0  0  0  0  0
    0.0000    0.0000    0.0000 O   0  0  0  0  0  0  0  0  0  0  0  0
    0.0000    0.0000    0.0000 O   0  0  0  0  0  0  0  0  0  0  0  0
    0.0000    0.0000    0.0000 N   0  0  0  0  0  0  0  0  0  0  0  0
  1  2  1  0
  2  3  1  0
  3  4  1  0
  4  5  1  0
  5  6  1  0
  6  7  1  0
  7  8  1  0
  8  9  1  0
  9 10  1  0
 10 11  1  0
 11 12  2  0
 11 13  2  0
 11 14  1  0
M  END
>  <pIC50>  (188) 
6.32

>  <ChEMBL_ID>  (188) 
CHEMBL66465

>  <document_journal>  (188) 
J. Med. Chem.

>  <bao_endpoint>  (188) 
BAO_0000190

>  <potential_duplicate>  (188) 
False

>  <uo_units>  (188) 
UO_0000065

>  <canonical_smiles>  (188) 
CCCCCCCCSCS(=O)(=O)N

>  <parent_molecule_chembl_id>  (188) 
CHEMBL66465

>  <assay_type>  (188) 
B

>  <src_id>  (188) 
1

>  <ligand_efficiency>  (188) 
{u'le': u'0.62', u'bei': u'26.39', u'sei': u'6.73', u'lle': u'3.61'}

>  <standard_flag>  (188) 
True

>  <molecule_chembl_id>  (188) 
CHEMBL66465

>  <target_organism>  (188) 
Homo sapiens

>  <standard_units>  (188) 
nM

>  <record_id>  (188) 
118446

>  <document_chembl_id>  (188) 
CHEMBL1126746

>  <bao_format>  (188) 
BAO_0000357

>  <data_validity_description>  (188) 
None

>  <activity_id>  (188) 
581473

>  <standard_type>  (188) 
IC50

>  <target_chembl_id>  (188) 
CHEMBL205

>  <data_validity_comment>  (188) 
None

>  <published_value>  (188) 
480

>  <document_year>  (188) 
1993

>  <target_pref_name>  (188) 
Carbonic anhydrase II

>  <assay_chembl_id>  (188) 
CHEMBL657917

>  <standard_relation>  (188) 
=

>  <assay_description>  (188) 
In vitro inhibition of purified human erythrocyte carbonic anhydrase II

>  <published_relation>  (188) 
=

>  <standard_value>  (188) 
480

>  <qudt_units>  (188) 
http://www.openphacts.org/units/Nanomolar

>  <target_tax_id>  (188) 
9606

>  <bao_label>  (188) 
single protein format

>  <published_units>  (188) 
nM

>  <pchembl_value>  (188) 
6.32

>  <published_type>  (188) 
IC50

>  <activity_comment>  (188) 
None

$$$$

     RDKit          

 17 18  0  0  0  0  0  0  0  0999 V2000
    0.0000    0.0000    0.0000 C   0  0  0  0  0  0  0  0  0  0  0  0
    0.0000    0.0000    0.0000 O   0  0  0  0  0  0  0  0  0  0  0  0
    0.0000    0.0000    0.0000 C   0  0  0  0  0  0  0  0  0  0  0  0
    0.0000    0.0000    0.0000 C   0  0  0  0  0  0  0  0  0  0  0  0
    0.0000    0.0000    0.0000 C   0  0  0  0  0  0  0  0  0  0  0  0
    0.0000    0.0000    0.0000 C   0  0  0  0  0  0  0  0  0  0  0  0
    0.0000    0.0000    0.0000 C   0  0  0  0  0  0  0  0  0  0  0  0
    0.0000    0.0000    0.0000 C   0  0  0  0  0  0  0  0  0  0  0  0
    0.0000    0.0000    0.0000 S   0  0  0  0  0  0  0  0  0  0  0  0
    0.0000    0.0000    0.0000 O   0  0  0  0  0  0  0  0  0  0  0  0
    0.0000    0.0000    0.0000 O   0  0  0  0  0  0  0  0  0  0  0  0
    0.0000    0.0000    0.0000 N   0  0  0  0  0  0  0  0  0  0  0  0
    0.0000    0.0000    0.0000 S   0  0  0  0  0  0  0  0  0  0  0  0
    0.0000    0.0000    0.0000 O   0  0  0  0  0  0  0  0  0  0  0  0
    0.0000    0.0000    0.0000 O   0  0  0  0  0  0  0  0  0  0  0  0
    0.0000    0.0000    0.0000 C   0  0  0  0  0  0  0  0  0  0  0  0
    0.0000    0.0000    0.0000 C   0  0  0  0  0  0  0  0  0  0  0  0
  1  2  1  0
  2  3  1  0
  3  4  2  0
  4  5  1  0
  5  6  2  0
  6  7  1  0
  7  8  1  0
  8  9  1  0
  9 10  2  0
  9 11  2  0
  9 12  1  0
  8 13  1  0
 13 14  2  0
 13 15  2  0
 13 16  1  0
 16 17  2  0
 17  3  1  0
 16  6  1  0
M  END
>  <pIC50>  (189) 
6.1

>  <ChEMBL_ID>  (189) 
CHEMBL69902

>  <document_journal>  (189) 
J. Med. Chem.

>  <bao_endpoint>  (189) 
BAO_0000190

>  <potential_duplicate>  (189) 
False

>  <uo_units>  (189) 
UO_0000065

>  <canonical_smiles>  (189) 
COc1ccc2CC(S(=O)(=O)N)S(=O)(=O)c2c1

>  <parent_molecule_chembl_id>  (189) 
CHEMBL69902

>  <assay_type>  (189) 
B

>  <src_id>  (189) 
1

>  <ligand_efficiency>  (189) 
{u'le': u'0.49', u'bei': u'21.99', u'sei': u'5.07', u'lle': u'5.97'}

>  <standard_flag>  (189) 
True

>  <molecule_chembl_id>  (189) 
CHEMBL69902

>  <target_organism>  (189) 
Homo sapiens

>  <standard_units>  (189) 
nM

>  <record_id>  (189) 
118451

>  <document_chembl_id>  (189) 
CHEMBL1126746

>  <bao_format>  (189) 
BAO_0000357

>  <data_validity_description>  (189) 
None

>  <activity_id>  (189) 
582684

>  <standard_type>  (189) 
IC50

>  <target_chembl_id>  (189) 
CHEMBL205

>  <data_validity_comment>  (189) 
None

>  <published_value>  (189) 
800

>  <document_year>  (189) 
1993

>  <target_pref_name>  (189) 
Carbonic anhydrase II

>  <assay_chembl_id>  (189) 
CHEMBL657917

>  <standard_relation>  (189) 
=

>  <assay_description>  (189) 
In vitro inhibition of purified human erythrocyte carbonic anhydrase II

>  <published_relation>  (189) 
=

>  <standard_value>  (189) 
800

>  <qudt_units>  (189) 
http://www.openphacts.org/units/Nanomolar

>  <target_tax_id>  (189) 
9606

>  <bao_label>  (189) 
single protein format

>  <published_units>  (189) 
nM

>  <pchembl_value>  (189) 
6.1

>  <published_type>  (189) 
IC50

>  <activity_comment>  (189) 
None

$$$$

     RDKit          

 15 15  0  0  0  0  0  0  0  0999 V2000
    0.0000    0.0000    0.0000 N   0  0  0  0  0  0  0  0  0  0  0  0
    0.0000    0.0000    0.0000 S   0  0  0  0  0  0  0  0  0  0  0  0
    0.0000    0.0000    0.0000 O   0  0  0  0  0  0  0  0  0  0  0  0
    0.0000    0.0000    0.0000 O   0  0  0  0  0  0  0  0  0  0  0  0
    0.0000    0.0000    0.0000 C   0  0  0  0  0  0  0  0  0  0  0  0
    0.0000    0.0000    0.0000 S   0  0  0  0  0  0  0  0  0  0  0  0
    0.0000    0.0000    0.0000 C   0  0  0  0  0  0  0  0  0  0  0  0
    0.0000    0.0000    0.0000 C   0  0  0  0  0  0  0  0  0  0  0  0
    0.0000    0.0000    0.0000 C   0  0  0  0  0  0  0  0  0  0  0  0
    0.0000    0.0000    0.0000 C   0  0  0  0  0  0  0  0  0  0  0  0
    0.0000    0.0000    0.0000 C   0  0  0  0  0  0  0  0  0  0  0  0
    0.0000    0.0000    0.0000 C   0  0  0  0  0  0  0  0  0  0  0  0
    0.0000    0.0000    0.0000 C   0  0  0  0  0  0  0  0  0  0  0  0
    0.0000    0.0000    0.0000 C   0  0  0  0  0  0  0  0  0  0  0  0
    0.0000    0.0000    0.0000 C   0  0  0  0  0  0  0  0  0  0  0  0
  1  2  1  0
  2  3  2  0
  2  4  2  0
  2  5  1  0
  5  6  1  0
  6  7  1  0
  7  8  1  0
  8  9  1  0
  9 10  1  0
 10 11  2  0
 11 12  1  0
 12 13  2  0
 13 14  1  0
 14 15  2  0
 15 10  1  0
M  END
>  <pIC50>  (190) 
5.92

>  <ChEMBL_ID>  (190) 
CHEMBL66752

>  <document_journal>  (190) 
J. Med. Chem.

>  <bao_endpoint>  (190) 
BAO_0000190

>  <potential_duplicate>  (190) 
False

>  <uo_units>  (190) 
UO_0000065

>  <canonical_smiles>  (190) 
NS(=O)(=O)CSCCCc1ccccc1

>  <parent_molecule_chembl_id>  (190) 
CHEMBL66752

>  <assay_type>  (190) 
B

>  <src_id>  (190) 
1

>  <ligand_efficiency>  (190) 
{u'le': u'0.54', u'bei': u'24.13', u'sei': u'6.31', u'lle': u'4'}

>  <standard_flag>  (190) 
True

>  <molecule_chembl_id>  (190) 
CHEMBL66752

>  <target_organism>  (190) 
Homo sapiens

>  <standard_units>  (190) 
nM

>  <record_id>  (190) 
118460

>  <document_chembl_id>  (190) 
CHEMBL1126746

>  <bao_format>  (190) 
BAO_0000357

>  <data_validity_description>  (190) 
None

>  <activity_id>  (190) 
582686

>  <standard_type>  (190) 
IC50

>  <target_chembl_id>  (190) 
CHEMBL205

>  <data_validity_comment>  (190) 
None

>  <published_value>  (190) 
1200

>  <document_year>  (190) 
1993

>  <target_pref_name>  (190) 
Carbonic anhydrase II

>  <assay_chembl_id>  (190) 
CHEMBL657917

>  <standard_relation>  (190) 
=

>  <assay_description>  (190) 
In vitro inhibition of purified human erythrocyte carbonic anhydrase II

>  <published_relation>  (190) 
=

>  <standard_value>  (190) 
1200

>  <qudt_units>  (190) 
http://www.openphacts.org/units/Nanomolar

>  <target_tax_id>  (190) 
9606

>  <bao_label>  (190) 
single protein format

>  <published_units>  (190) 
nM

>  <pchembl_value>  (190) 
5.92

>  <published_type>  (190) 
IC50

>  <activity_comment>  (190) 
None

$$$$

     RDKit          

 15 15  0  0  0  0  0  0  0  0999 V2000
    0.0000    0.0000    0.0000 N   0  0  0  0  0  0  0  0  0  0  0  0
    0.0000    0.0000    0.0000 S   0  0  0  0  0  0  0  0  0  0  0  0
    0.0000    0.0000    0.0000 O   0  0  0  0  0  0  0  0  0  0  0  0
    0.0000    0.0000    0.0000 O   0  0  0  0  0  0  0  0  0  0  0  0
    0.0000    0.0000    0.0000 C   0  0  0  0  0  0  0  0  0  0  0  0
    0.0000    0.0000    0.0000 S   0  0  0  0  0  0  0  0  0  0  0  0
    0.0000    0.0000    0.0000 O   0  0  0  0  0  0  0  0  0  0  0  0
    0.0000    0.0000    0.0000 O   0  0  0  0  0  0  0  0  0  0  0  0
    0.0000    0.0000    0.0000 C   0  0  0  0  0  0  0  0  0  0  0  0
    0.0000    0.0000    0.0000 C   0  0  0  0  0  0  0  0  0  0  0  0
    0.0000    0.0000    0.0000 C   0  0  0  0  0  0  0  0  0  0  0  0
    0.0000    0.0000    0.0000 C   0  0  0  0  0  0  0  0  0  0  0  0
    0.0000    0.0000    0.0000 O   0  0  0  0  0  0  0  0  0  0  0  0
    0.0000    0.0000    0.0000 C   0  0  0  0  0  0  0  0  0  0  0  0
    0.0000    0.0000    0.0000 C   0  0  0  0  0  0  0  0  0  0  0  0
  1  2  1  0
  2  3  2  0
  2  4  2  0
  2  5  1  0
  5  6  1  0
  6  7  2  0
  6  8  2  0
  6  9  1  0
  9 10  2  0
 10 11  1  0
 11 12  2  0
 12 13  1  0
 12 14  1  0
 14 15  2  0
 15  9  1  0
M  END
>  <pIC50>  (191) 
6.4

>  <ChEMBL_ID>  (191) 
CHEMBL67154

>  <document_journal>  (191) 
J. Med. Chem.

>  <bao_endpoint>  (191) 
BAO_0000190

>  <potential_duplicate>  (191) 
False

>  <uo_units>  (191) 
UO_0000065

>  <canonical_smiles>  (191) 
NS(=O)(=O)CS(=O)(=O)c1ccc(O)cc1

>  <parent_molecule_chembl_id>  (191) 
CHEMBL67154

>  <assay_type>  (191) 
B

>  <src_id>  (191) 
1

>  <ligand_efficiency>  (191) 
{u'le': u'0.58', u'bei': u'25.46', u'sei': u'4.87', u'lle': u'6.53'}

>  <standard_flag>  (191) 
True

>  <molecule_chembl_id>  (191) 
CHEMBL67154

>  <target_organism>  (191) 
Homo sapiens

>  <standard_units>  (191) 
nM

>  <record_id>  (191) 
118449

>  <document_chembl_id>  (191) 
CHEMBL1126746

>  <bao_format>  (191) 
BAO_0000357

>  <data_validity_description>  (191) 
None

>  <activity_id>  (191) 
585325

>  <standard_type>  (191) 
IC50

>  <target_chembl_id>  (191) 
CHEMBL205

>  <data_validity_comment>  (191) 
None

>  <published_value>  (191) 
400

>  <document_year>  (191) 
1993

>  <target_pref_name>  (191) 
Carbonic anhydrase II

>  <assay_chembl_id>  (191) 
CHEMBL657917

>  <standard_relation>  (191) 
=

>  <assay_description>  (191) 
In vitro inhibition of purified human erythrocyte carbonic anhydrase II

>  <published_relation>  (191) 
=

>  <standard_value>  (191) 
400

>  <qudt_units>  (191) 
http://www.openphacts.org/units/Nanomolar

>  <target_tax_id>  (191) 
9606

>  <bao_label>  (191) 
single protein format

>  <published_units>  (191) 
nM

>  <pchembl_value>  (191) 
6.4

>  <published_type>  (191) 
IC50

>  <activity_comment>  (191) 
None

$$$$

     RDKit          

 17 16  0  0  0  0  0  0  0  0999 V2000
    0.0000    0.0000    0.0000 C   0  0  0  0  0  0  0  0  0  0  0  0
    0.0000    0.0000    0.0000 C   0  0  0  0  0  0  0  0  0  0  0  0
    0.0000    0.0000    0.0000 C   0  0  0  0  0  0  0  0  0  0  0  0
    0.0000    0.0000    0.0000 C   0  0  0  0  0  0  0  0  0  0  0  0
    0.0000    0.0000    0.0000 C   0  0  0  0  0  0  0  0  0  0  0  0
    0.0000    0.0000    0.0000 C   0  0  0  0  0  0  0  0  0  0  0  0
    0.0000    0.0000    0.0000 C   0  0  0  0  0  0  0  0  0  0  0  0
    0.0000    0.0000    0.0000 C   0  0  0  0  0  0  0  0  0  0  0  0
    0.0000    0.0000    0.0000 S   0  0  0  0  0  0  0  0  0  0  0  0
    0.0000    0.0000    0.0000 O   0  0  0  0  0  0  0  0  0  0  0  0
    0.0000    0.0000    0.0000 O   0  0  0  0  0  0  0  0  0  0  0  0
    0.0000    0.0000    0.0000 C   0  0  0  0  0  0  0  0  0  0  0  0
    0.0000    0.0000    0.0000 C   0  0  0  0  0  0  0  0  0  0  0  0
    0.0000    0.0000    0.0000 S   0  0  0  0  0  0  0  0  0  0  0  0
    0.0000    0.0000    0.0000 O   0  0  0  0  0  0  0  0  0  0  0  0
    0.0000    0.0000    0.0000 O   0  0  0  0  0  0  0  0  0  0  0  0
    0.0000    0.0000    0.0000 N   0  0  0  0  0  0  0  0  0  0  0  0
  1  2  1  0
  2  3  1  0
  3  4  1  0
  4  5  1  0
  5  6  1  0
  6  7  1  0
  7  8  1  0
  8  9  1  0
  9 10  2  0
  9 11  2  0
  9 12  1  0
 12 13  1  0
 12 14  1  0
 14 15  2  0
 14 16  2  0
 14 17  1  0
M  END
>  <pIC50>  (192) 
5.6

>  <ChEMBL_ID>  (192) 
CHEMBL69113

>  <document_journal>  (192) 
J. Med. Chem.

>  <bao_endpoint>  (192) 
BAO_0000190

>  <potential_duplicate>  (192) 
False

>  <uo_units>  (192) 
UO_0000065

>  <canonical_smiles>  (192) 
CCCCCCCCS(=O)(=O)C(C)S(=O)(=O)N

>  <parent_molecule_chembl_id>  (192) 
CHEMBL69113

>  <assay_type>  (192) 
B

>  <src_id>  (192) 
1

>  <ligand_efficiency>  (192) 
{u'le': u'0.45', u'bei': u'19.63', u'sei': u'5.04', u'lle': u'3.73'}

>  <standard_flag>  (192) 
True

>  <molecule_chembl_id>  (192) 
CHEMBL69113

>  <target_organism>  (192) 
Homo sapiens

>  <standard_units>  (192) 
nM

>  <record_id>  (192) 
118455

>  <document_chembl_id>  (192) 
CHEMBL1126746

>  <bao_format>  (192) 
BAO_0000357

>  <data_validity_description>  (192) 
None

>  <activity_id>  (192) 
587700

>  <standard_type>  (192) 
IC50

>  <target_chembl_id>  (192) 
CHEMBL205

>  <data_validity_comment>  (192) 
None

>  <published_value>  (192) 
2500

>  <document_year>  (192) 
1993

>  <target_pref_name>  (192) 
Carbonic anhydrase II

>  <assay_chembl_id>  (192) 
CHEMBL657917

>  <standard_relation>  (192) 
=

>  <assay_description>  (192) 
In vitro inhibition of purified human erythrocyte carbonic anhydrase II

>  <published_relation>  (192) 
=

>  <standard_value>  (192) 
2500

>  <qudt_units>  (192) 
http://www.openphacts.org/units/Nanomolar

>  <target_tax_id>  (192) 
9606

>  <bao_label>  (192) 
single protein format

>  <published_units>  (192) 
nM

>  <pchembl_value>  (192) 
5.6

>  <published_type>  (192) 
IC50

>  <activity_comment>  (192) 
None

$$$$

     RDKit          

 15 16  0  0  0  0  0  0  0  0999 V2000
    0.0000    0.0000    0.0000 N   0  0  0  0  0  0  0  0  0  0  0  0
    0.0000    0.0000    0.0000 S   0  0  0  0  0  0  0  0  0  0  0  0
    0.0000    0.0000    0.0000 O   0  0  0  0  0  0  0  0  0  0  0  0
    0.0000    0.0000    0.0000 O   0  0  0  0  0  0  0  0  0  0  0  0
    0.0000    0.0000    0.0000 C   0  0  0  0  0  0  0  0  0  0  0  0
    0.0000    0.0000    0.0000 C   0  0  0  0  0  0  0  0  0  0  0  0
    0.0000    0.0000    0.0000 C   0  0  0  0  0  0  0  0  0  0  0  0
    0.0000    0.0000    0.0000 N   0  0  0  0  0  0  0  0  0  0  0  0
    0.0000    0.0000    0.0000 C   0  0  0  0  0  0  0  0  0  0  0  0
    0.0000    0.0000    0.0000 C   0  0  0  0  0  0  0  0  0  0  0  0
    0.0000    0.0000    0.0000 S   0  0  0  0  0  0  0  0  0  0  0  0
    0.0000    0.0000    0.0000 O   0  0  0  0  0  0  0  0  0  0  0  0
    0.0000    0.0000    0.0000 O   0  0  0  0  0  0  0  0  0  0  0  0
    0.0000    0.0000    0.0000 C   0  0  0  0  0  0  0  0  0  0  0  0
    0.0000    0.0000    0.0000 S   0  0  0  0  0  0  0  0  0  0  0  0
  1  2  1  0
  2  3  2  0
  2  4  2  0
  2  5  1  0
  5  6  2  0
  6  7  1  0
  7  8  1  0
  8  9  1  0
  9 10  1  0
 10 11  1  0
 11 12  2  0
 11 13  2  0
 11 14  1  0
 14 15  1  0
 15  5  1  0
 14  7  2  0
M  END
>  <pIC50>  (193) 
8.61

>  <ChEMBL_ID>  (193) 
CHEMBL310903

>  <document_journal>  (193) 
J. Med. Chem.

>  <bao_endpoint>  (193) 
BAO_0000190

>  <potential_duplicate>  (193) 
False

>  <uo_units>  (193) 
UO_0000065

>  <canonical_smiles>  (193) 
NS(=O)(=O)c1cc2NCCS(=O)(=O)c2s1

>  <parent_molecule_chembl_id>  (193) 
CHEMBL310903

>  <assay_type>  (193) 
B

>  <src_id>  (193) 
1

>  <ligand_efficiency>  (193) 
{u'le': u'0.78', u'bei': u'32.08', u'sei': u'5.69', u'lle': u'9.01'}

>  <standard_flag>  (193) 
True

>  <molecule_chembl_id>  (193) 
CHEMBL310903

>  <target_organism>  (193) 
Homo sapiens

>  <standard_units>  (193) 
nM

>  <record_id>  (193) 
146887

>  <document_chembl_id>  (193) 
CHEMBL1127476

>  <bao_format>  (193) 
BAO_0000357

>  <data_validity_description>  (193) 
None

>  <activity_id>  (193) 
595342

>  <standard_type>  (193) 
IC50

>  <target_chembl_id>  (193) 
CHEMBL205

>  <data_validity_comment>  (193) 
None

>  <published_value>  (193) 
2.46E-9

>  <document_year>  (193) 
1994

>  <target_pref_name>  (193) 
Carbonic anhydrase II

>  <assay_chembl_id>  (193) 
CHEMBL656577

>  <standard_relation>  (193) 
=

>  <assay_description>  (193) 
Tested for ability to inhibit human erythrocyte carbonic-anhydrase-II- (HCA II) catalyzed carbon dioxide hydration

>  <published_relation>  (193) 
=

>  <standard_value>  (193) 
2.46

>  <qudt_units>  (193) 
http://www.openphacts.org/units/Nanomolar

>  <target_tax_id>  (193) 
9606

>  <bao_label>  (193) 
single protein format

>  <published_units>  (193) 
M

>  <pchembl_value>  (193) 
8.61

>  <published_type>  (193) 
I50

>  <activity_comment>  (193) 
None

$$$$

     RDKit          

 30 31  0  0  0  0  0  0  0  0999 V2000
    0.0000    0.0000    0.0000 C   0  0  0  0  0  0  0  0  0  0  0  0
    0.0000    0.0000    0.0000 O   0  0  0  0  0  0  0  0  0  0  0  0
    0.0000    0.0000    0.0000 C   0  0  0  0  0  0  0  0  0  0  0  0
    0.0000    0.0000    0.0000 C   0  0  0  0  0  0  0  0  0  0  0  0
    0.0000    0.0000    0.0000 O   0  0  0  0  0  0  0  0  0  0  0  0
    0.0000    0.0000    0.0000 C   0  0  0  0  0  0  0  0  0  0  0  0
    0.0000    0.0000    0.0000 C   0  0  0  0  0  0  0  0  0  0  0  0
    0.0000    0.0000    0.0000 N   0  0  0  0  0  0  0  0  0  0  0  0
    0.0000    0.0000    0.0000 C   0  0  0  0  0  0  0  0  0  0  0  0
    0.0000    0.0000    0.0000 C   0  0  0  0  0  0  0  0  0  0  0  0
    0.0000    0.0000    0.0000 O   0  0  0  0  0  0  0  0  0  0  0  0
    0.0000    0.0000    0.0000 C   0  0  0  0  0  0  0  0  0  0  0  0
    0.0000    0.0000    0.0000 C   0  0  0  0  0  0  0  0  0  0  0  0
    0.0000    0.0000    0.0000 C   0  0  0  0  0  0  0  0  0  0  0  0
    0.0000    0.0000    0.0000 C   0  0  0  0  0  0  0  0  0  0  0  0
    0.0000    0.0000    0.0000 C   0  0  0  0  0  0  0  0  0  0  0  0
    0.0000    0.0000    0.0000 O   0  0  0  0  0  0  0  0  0  0  0  0
    0.0000    0.0000    0.0000 N   0  0  0  0  0  0  0  0  0  0  0  0
    0.0000    0.0000    0.0000 C   0  0  0  0  0  0  0  0  0  0  0  0
    0.0000    0.0000    0.0000 C   0  0  0  0  0  0  0  0  0  0  0  0
    0.0000    0.0000    0.0000 C   0  0  0  0  0  0  0  0  0  0  0  0
    0.0000    0.0000    0.0000 S   0  0  0  0  0  0  0  0  0  0  0  0
    0.0000    0.0000    0.0000 C   0  0  0  0  0  0  0  0  0  0  0  0
    0.0000    0.0000    0.0000 S   0  0  0  0  0  0  0  0  0  0  0  0
    0.0000    0.0000    0.0000 O   0  0  0  0  0  0  0  0  0  0  0  0
    0.0000    0.0000    0.0000 O   0  0  0  0  0  0  0  0  0  0  0  0
    0.0000    0.0000    0.0000 S   0  0  0  0  0  0  0  0  0  0  0  0
    0.0000    0.0000    0.0000 O   0  0  0  0  0  0  0  0  0  0  0  0
    0.0000    0.0000    0.0000 O   0  0  0  0  0  0  0  0  0  0  0  0
    0.0000    0.0000    0.0000 N   0  0  0  0  0  0  0  0  0  0  0  0
  1  2  1  0
  2  3  1  0
  3  4  1  0
  4  5  1  0
  5  6  1  0
  6  7  1  0
  7  8  1  0
  8  9  1  0
  9 10  1  0
 10 11  1  0
 11 12  1  0
  8 13  1  0
 13 14  1  0
 14 15  1  0
 15 16  1  0
 16 17  2  0
 16 18  1  0
 18 19  1  0
 19 20  1  0
 20 21  2  0
 21 22  1  0
 22 23  1  0
 23 24  1  0
 24 25  2  0
 24 26  2  0
 21 27  1  0
 27 28  2  0
 27 29  2  0
 27 30  1  0
 24 15  1  0
 23 19  2  0
M  END
>  <pIC50>  (194) 
8.29

>  <ChEMBL_ID>  (194) 
CHEMBL80060

>  <document_journal>  (194) 
J. Med. Chem.

>  <bao_endpoint>  (194) 
BAO_0000190

>  <potential_duplicate>  (194) 
False

>  <uo_units>  (194) 
UO_0000065

>  <canonical_smiles>  (194) 
COCCOCCN(CCOC)CCC1C(=O)Nc2cc(sc2S1(=O)=O)S(=O)(=O)N

>  <parent_molecule_chembl_id>  (194) 
CHEMBL80060

>  <assay_type>  (194) 
B

>  <src_id>  (194) 
1

>  <ligand_efficiency>  (194) 
{u'le': u'0.38', u'bei': u'17.07', u'sei': u'4.16', u'lle': u'9.57'}

>  <standard_flag>  (194) 
True

>  <molecule_chembl_id>  (194) 
CHEMBL80060

>  <target_organism>  (194) 
Homo sapiens

>  <standard_units>  (194) 
nM

>  <record_id>  (194) 
146895

>  <document_chembl_id>  (194) 
CHEMBL1127476

>  <bao_format>  (194) 
BAO_0000357

>  <data_validity_description>  (194) 
None

>  <activity_id>  (194) 
595344

>  <standard_type>  (194) 
IC50

>  <target_chembl_id>  (194) 
CHEMBL205

>  <data_validity_comment>  (194) 
None

>  <published_value>  (194) 
5.15E-9

>  <document_year>  (194) 
1994

>  <target_pref_name>  (194) 
Carbonic anhydrase II

>  <assay_chembl_id>  (194) 
CHEMBL656577

>  <standard_relation>  (194) 
=

>  <assay_description>  (194) 
Tested for ability to inhibit human erythrocyte carbonic-anhydrase-II- (HCA II) catalyzed carbon dioxide hydration

>  <published_relation>  (194) 
=

>  <standard_value>  (194) 
5.15

>  <qudt_units>  (194) 
http://www.openphacts.org/units/Nanomolar

>  <target_tax_id>  (194) 
9606

>  <bao_label>  (194) 
single protein format

>  <published_units>  (194) 
M

>  <pchembl_value>  (194) 
8.29

>  <published_type>  (194) 
I50

>  <activity_comment>  (194) 
None

$$$$

     RDKit          

 29 30  0  0  0  0  0  0  0  0999 V2000
    0.0000    0.0000    0.0000 C   0  0  0  0  0  0  0  0  0  0  0  0
    0.0000    0.0000    0.0000 O   0  0  0  0  0  0  0  0  0  0  0  0
    0.0000    0.0000    0.0000 C   0  0  0  0  0  0  0  0  0  0  0  0
    0.0000    0.0000    0.0000 C   0  0  0  0  0  0  0  0  0  0  0  0
    0.0000    0.0000    0.0000 O   0  0  0  0  0  0  0  0  0  0  0  0
    0.0000    0.0000    0.0000 C   0  0  0  0  0  0  0  0  0  0  0  0
    0.0000    0.0000    0.0000 C   0  0  0  0  0  0  0  0  0  0  0  0
    0.0000    0.0000    0.0000 N   0  0  0  0  0  0  0  0  0  0  0  0
    0.0000    0.0000    0.0000 C   0  0  0  0  0  0  0  0  0  0  0  0
    0.0000    0.0000    0.0000 C   0  0  0  0  0  0  0  0  0  0  0  0
    0.0000    0.0000    0.0000 O   0  0  0  0  0  0  0  0  0  0  0  0
    0.0000    0.0000    0.0000 C   0  0  0  0  0  0  0  0  0  0  0  0
    0.0000    0.0000    0.0000 C   0  0  0  0  0  0  0  0  0  0  0  0
    0.0000    0.0000    0.0000 C   0  0  0  0  0  0  0  0  0  0  0  0
    0.0000    0.0000    0.0000 C   0  0  0  0  0  0  0  0  0  0  0  0
    0.0000    0.0000    0.0000 C   0  0  0  0  0  0  0  0  0  0  0  0
    0.0000    0.0000    0.0000 N   0  0  0  0  0  0  0  0  0  0  0  0
    0.0000    0.0000    0.0000 C   0  0  0  0  0  0  0  0  0  0  0  0
    0.0000    0.0000    0.0000 C   0  0  0  0  0  0  0  0  0  0  0  0
    0.0000    0.0000    0.0000 C   0  0  0  0  0  0  0  0  0  0  0  0
    0.0000    0.0000    0.0000 S   0  0  0  0  0  0  0  0  0  0  0  0
    0.0000    0.0000    0.0000 C   0  0  0  0  0  0  0  0  0  0  0  0
    0.0000    0.0000    0.0000 S   0  0  0  0  0  0  0  0  0  0  0  0
    0.0000    0.0000    0.0000 O   0  0  0  0  0  0  0  0  0  0  0  0
    0.0000    0.0000    0.0000 O   0  0  0  0  0  0  0  0  0  0  0  0
    0.0000    0.0000    0.0000 S   0  0  0  0  0  0  0  0  0  0  0  0
    0.0000    0.0000    0.0000 O   0  0  0  0  0  0  0  0  0  0  0  0
    0.0000    0.0000    0.0000 O   0  0  0  0  0  0  0  0  0  0  0  0
    0.0000    0.0000    0.0000 N   0  0  0  0  0  0  0  0  0  0  0  0
  1  2  1  0
  2  3  1  0
  3  4  1  0
  4  5  1  0
  5  6  1  0
  6  7  1  0
  7  8  1  0
  8  9  1  0
  9 10  1  0
 10 11  1  0
 11 12  1  0
  8 13  1  0
 13 14  1  0
 14 15  1  0
 15 16  1  0
 16 17  1  0
 17 18  1  0
 18 19  1  0
 19 20  2  0
 20 21  1  0
 21 22  1  0
 22 23  1  0
 23 24  2  0
 23 25  2  0
 20 26  1  0
 26 27  2  0
 26 28  2  0
 26 29  1  0
 23 15  1  0
 22 18  2  0
M  END
>  <pIC50>  (195) 
8.84

>  <ChEMBL_ID>  (195) 
CHEMBL311263

>  <document_journal>  (195) 
J. Med. Chem.

>  <bao_endpoint>  (195) 
BAO_0000190

>  <potential_duplicate>  (195) 
False

>  <uo_units>  (195) 
UO_0000065

>  <canonical_smiles>  (195) 
COCCOCCN(CCOC)CCC1CNc2cc(sc2S1(=O)=O)S(=O)(=O)N

>  <parent_molecule_chembl_id>  (195) 
CHEMBL311263

>  <assay_type>  (195) 
B

>  <src_id>  (195) 
1

>  <ligand_efficiency>  (195) 
{u'le': u'0.42', u'bei': u'18.74', u'sei': u'4.85', u'lle': u'9.4'}

>  <standard_flag>  (195) 
True

>  <molecule_chembl_id>  (195) 
CHEMBL311263

>  <target_organism>  (195) 
Homo sapiens

>  <standard_units>  (195) 
nM

>  <record_id>  (195) 
146898

>  <document_chembl_id>  (195) 
CHEMBL1127476

>  <bao_format>  (195) 
BAO_0000357

>  <data_validity_description>  (195) 
None

>  <activity_id>  (195) 
597997

>  <standard_type>  (195) 
IC50

>  <target_chembl_id>  (195) 
CHEMBL205

>  <data_validity_comment>  (195) 
None

>  <published_value>  (195) 
1.45E-9

>  <document_year>  (195) 
1994

>  <target_pref_name>  (195) 
Carbonic anhydrase II

>  <assay_chembl_id>  (195) 
CHEMBL656577

>  <standard_relation>  (195) 
=

>  <assay_description>  (195) 
Tested for ability to inhibit human erythrocyte carbonic-anhydrase-II- (HCA II) catalyzed carbon dioxide hydration

>  <published_relation>  (195) 
=

>  <standard_value>  (195) 
1.45

>  <qudt_units>  (195) 
http://www.openphacts.org/units/Nanomolar

>  <target_tax_id>  (195) 
9606

>  <bao_label>  (195) 
single protein format

>  <published_units>  (195) 
M

>  <pchembl_value>  (195) 
8.84

>  <published_type>  (195) 
I50

>  <activity_comment>  (195) 
None

$$$$

     RDKit          

 15 16  0  0  0  0  0  0  0  0999 V2000
    0.0000    0.0000    0.0000 N   0  0  0  0  0  0  0  0  0  0  0  0
    0.0000    0.0000    0.0000 S   0  0  0  0  0  0  0  0  0  0  0  0
    0.0000    0.0000    0.0000 O   0  0  0  0  0  0  0  0  0  0  0  0
    0.0000    0.0000    0.0000 O   0  0  0  0  0  0  0  0  0  0  0  0
    0.0000    0.0000    0.0000 C   0  0  0  0  0  0  0  0  0  0  0  0
    0.0000    0.0000    0.0000 C   0  0  0  0  0  0  0  0  0  0  0  0
    0.0000    0.0000    0.0000 C   0  0  0  0  0  0  0  0  0  0  0  0
    0.0000    0.0000    0.0000 N   0  0  0  0  0  0  0  0  0  0  0  0
    0.0000    0.0000    0.0000 C   0  0  0  0  0  0  0  0  0  0  0  0
    0.0000    0.0000    0.0000 O   0  0  0  0  0  0  0  0  0  0  0  0
    0.0000    0.0000    0.0000 C   0  0  0  0  0  0  0  0  0  0  0  0
    0.0000    0.0000    0.0000 S   0  0  0  0  0  0  0  0  0  0  0  0
    0.0000    0.0000    0.0000 O   0  0  0  0  0  0  0  0  0  0  0  0
    0.0000    0.0000    0.0000 C   0  0  0  0  0  0  0  0  0  0  0  0
    0.0000    0.0000    0.0000 S   0  0  0  0  0  0  0  0  0  0  0  0
  1  2  1  0
  2  3  2  0
  2  4  2  0
  2  5  1  0
  5  6  2  0
  6  7  1  0
  7  8  1  0
  8  9  1  0
  9 10  2  0
  9 11  1  0
 11 12  1  0
 12 13  1  0
 12 14  1  0
 14 15  1  0
 15  5  1  0
 14  7  2  0
M  CHG  2  12   1  13  -1
M  END
>  <pIC50>  (196) 
7.5

>  <ChEMBL_ID>  (196) 
CHEMBL83820

>  <document_journal>  (196) 
J. Med. Chem.

>  <bao_endpoint>  (196) 
BAO_0000190

>  <potential_duplicate>  (196) 
False

>  <uo_units>  (196) 
UO_0000065

>  <canonical_smiles>  (196) 
NS(=O)(=O)c1cc2NC(=O)C[S+]([O-])c2s1

>  <parent_molecule_chembl_id>  (196) 
CHEMBL83820

>  <assay_type>  (196) 
B

>  <src_id>  (196) 
1

>  <ligand_efficiency>  (196) 
{u'le': u'0.68', u'bei': u'28.16', u'sei': u'4.63', u'lle': u'8.82'}

>  <standard_flag>  (196) 
True

>  <molecule_chembl_id>  (196) 
CHEMBL83820

>  <target_organism>  (196) 
Homo sapiens

>  <standard_units>  (196) 
nM

>  <record_id>  (196) 
146886

>  <document_chembl_id>  (196) 
CHEMBL1127476

>  <bao_format>  (196) 
BAO_0000357

>  <data_validity_description>  (196) 
None

>  <activity_id>  (196) 
601740

>  <standard_type>  (196) 
IC50

>  <target_chembl_id>  (196) 
CHEMBL205

>  <data_validity_comment>  (196) 
None

>  <published_value>  (196) 
3.16E-8

>  <document_year>  (196) 
1994

>  <target_pref_name>  (196) 
Carbonic anhydrase II

>  <assay_chembl_id>  (196) 
CHEMBL656577

>  <standard_relation>  (196) 
=

>  <assay_description>  (196) 
Tested for ability to inhibit human erythrocyte carbonic-anhydrase-II- (HCA II) catalyzed carbon dioxide hydration

>  <published_relation>  (196) 
=

>  <standard_value>  (196) 
31.6

>  <qudt_units>  (196) 
http://www.openphacts.org/units/Nanomolar

>  <target_tax_id>  (196) 
9606

>  <bao_label>  (196) 
single protein format

>  <published_units>  (196) 
M

>  <pchembl_value>  (196) 
7.5

>  <published_type>  (196) 
I50

>  <activity_comment>  (196) 
None

$$$$

     RDKit          

 14 15  0  0  0  0  0  0  0  0999 V2000
    0.0000    0.0000    0.0000 N   0  0  0  0  0  0  0  0  0  0  0  0
    0.0000    0.0000    0.0000 S   0  0  0  0  0  0  0  0  0  0  0  0
    0.0000    0.0000    0.0000 O   0  0  0  0  0  0  0  0  0  0  0  0
    0.0000    0.0000    0.0000 O   0  0  0  0  0  0  0  0  0  0  0  0
    0.0000    0.0000    0.0000 C   0  0  0  0  0  0  0  0  0  0  0  0
    0.0000    0.0000    0.0000 C   0  0  0  0  0  0  0  0  0  0  0  0
    0.0000    0.0000    0.0000 C   0  0  0  0  0  0  0  0  0  0  0  0
    0.0000    0.0000    0.0000 N   0  0  0  0  0  0  0  0  0  0  0  0
    0.0000    0.0000    0.0000 C   0  0  0  0  0  0  0  0  0  0  0  0
    0.0000    0.0000    0.0000 O   0  0  0  0  0  0  0  0  0  0  0  0
    0.0000    0.0000    0.0000 C   0  0  0  0  0  0  0  0  0  0  0  0
    0.0000    0.0000    0.0000 S   0  0  0  0  0  0  0  0  0  0  0  0
    0.0000    0.0000    0.0000 C   0  0  0  0  0  0  0  0  0  0  0  0
    0.0000    0.0000    0.0000 S   0  0  0  0  0  0  0  0  0  0  0  0
  1  2  1  0
  2  3  2  0
  2  4  2  0
  2  5  1  0
  5  6  2  0
  6  7  1  0
  7  8  1  0
  8  9  1  0
  9 10  2  0
  9 11  1  0
 11 12  1  0
 12 13  1  0
 13 14  1  0
 14  5  1  0
 13  7  2  0
M  END
>  <pIC50>  (197) 
7.89

>  <ChEMBL_ID>  (197) 
CHEMBL310152

>  <document_journal>  (197) 
J. Med. Chem.

>  <bao_endpoint>  (197) 
BAO_0000190

>  <potential_duplicate>  (197) 
False

>  <uo_units>  (197) 
UO_0000065

>  <canonical_smiles>  (197) 
NS(=O)(=O)c1cc2NC(=O)CSc2s1

>  <parent_molecule_chembl_id>  (197) 
CHEMBL310152

>  <assay_type>  (197) 
B

>  <src_id>  (197) 
1

>  <ligand_efficiency>  (197) 
{u'le': u'0.77', u'bei': u'31.53', u'sei': u'5.22', u'lle': u'8.1'}

>  <standard_flag>  (197) 
True

>  <molecule_chembl_id>  (197) 
CHEMBL310152

>  <target_organism>  (197) 
Homo sapiens

>  <standard_units>  (197) 
nM

>  <record_id>  (197) 
146885

>  <document_chembl_id>  (197) 
CHEMBL1127476

>  <bao_format>  (197) 
BAO_0000357

>  <data_validity_description>  (197) 
None

>  <activity_id>  (197) 
604293

>  <standard_type>  (197) 
IC50

>  <target_chembl_id>  (197) 
CHEMBL205

>  <data_validity_comment>  (197) 
None

>  <published_value>  (197) 
1.28E-8

>  <document_year>  (197) 
1994

>  <target_pref_name>  (197) 
Carbonic anhydrase II

>  <assay_chembl_id>  (197) 
CHEMBL656577

>  <standard_relation>  (197) 
=

>  <assay_description>  (197) 
Tested for ability to inhibit human erythrocyte carbonic-anhydrase-II- (HCA II) catalyzed carbon dioxide hydration

>  <published_relation>  (197) 
=

>  <standard_value>  (197) 
12.8

>  <qudt_units>  (197) 
http://www.openphacts.org/units/Nanomolar

>  <target_tax_id>  (197) 
9606

>  <bao_label>  (197) 
single protein format

>  <published_units>  (197) 
M

>  <pchembl_value>  (197) 
7.89

>  <published_type>  (197) 
I50

>  <activity_comment>  (197) 
None

$$$$

     RDKit          

 31 32  0  0  0  0  0  0  0  0999 V2000
    0.0000    0.0000    0.0000 C   0  0  0  0  0  0  0  0  0  0  0  0
    0.0000    0.0000    0.0000 O   0  0  0  0  0  0  0  0  0  0  0  0
    0.0000    0.0000    0.0000 C   0  0  0  0  0  0  0  0  0  0  0  0
    0.0000    0.0000    0.0000 C   0  0  0  0  0  0  0  0  0  0  0  0
    0.0000    0.0000    0.0000 O   0  0  0  0  0  0  0  0  0  0  0  0
    0.0000    0.0000    0.0000 C   0  0  0  0  0  0  0  0  0  0  0  0
    0.0000    0.0000    0.0000 C   0  0  0  0  0  0  0  0  0  0  0  0
    0.0000    0.0000    0.0000 N   0  0  0  0  0  0  0  0  0  0  0  0
    0.0000    0.0000    0.0000 C   0  0  0  0  0  0  0  0  0  0  0  0
    0.0000    0.0000    0.0000 C   0  0  0  0  0  0  0  0  0  0  0  0
    0.0000    0.0000    0.0000 O   0  0  0  0  0  0  0  0  0  0  0  0
    0.0000    0.0000    0.0000 C   0  0  0  0  0  0  0  0  0  0  0  0
    0.0000    0.0000    0.0000 C   0  0  0  0  0  0  0  0  0  0  0  0
    0.0000    0.0000    0.0000 O   0  0  0  0  0  0  0  0  0  0  0  0
    0.0000    0.0000    0.0000 C   0  0  0  0  0  0  0  0  0  0  0  0
    0.0000    0.0000    0.0000 C   0  0  0  0  0  0  0  0  0  0  0  0
    0.0000    0.0000    0.0000 C   0  0  0  0  0  0  0  0  0  0  0  0
    0.0000    0.0000    0.0000 O   0  0  0  0  0  0  0  0  0  0  0  0
    0.0000    0.0000    0.0000 N   0  0  0  0  0  0  0  0  0  0  0  0
    0.0000    0.0000    0.0000 C   0  0  0  0  0  0  0  0  0  0  0  0
    0.0000    0.0000    0.0000 C   0  0  0  0  0  0  0  0  0  0  0  0
    0.0000    0.0000    0.0000 C   0  0  0  0  0  0  0  0  0  0  0  0
    0.0000    0.0000    0.0000 S   0  0  0  0  0  0  0  0  0  0  0  0
    0.0000    0.0000    0.0000 C   0  0  0  0  0  0  0  0  0  0  0  0
    0.0000    0.0000    0.0000 S   0  0  0  0  0  0  0  0  0  0  0  0
    0.0000    0.0000    0.0000 O   0  0  0  0  0  0  0  0  0  0  0  0
    0.0000    0.0000    0.0000 O   0  0  0  0  0  0  0  0  0  0  0  0
    0.0000    0.0000    0.0000 S   0  0  0  0  0  0  0  0  0  0  0  0
    0.0000    0.0000    0.0000 O   0  0  0  0  0  0  0  0  0  0  0  0
    0.0000    0.0000    0.0000 O   0  0  0  0  0  0  0  0  0  0  0  0
    0.0000    0.0000    0.0000 N   0  0  0  0  0  0  0  0  0  0  0  0
  1  2  1  0
  2  3  1  0
  3  4  1  0
  4  5  1  0
  5  6  1  0
  6  7  1  0
  7  8  1  0
  8  9  1  0
  9 10  1  0
 10 11  1  0
 11 12  1  0
  8 13  1  0
 13 14  2  0
 13 15  1  0
 15 16  1  0
 16 17  1  0
 17 18  2  0
 17 19  1  0
 19 20  1  0
 20 21  1  0
 21 22  2  0
 22 23  1  0
 23 24  1  0
 24 25  1  0
 25 26  2  0
 25 27  2  0
 22 28  1  0
 28 29  2  0
 28 30  2  0
 28 31  1  0
 25 16  1  0
 24 20  2  0
M  END
>  <pIC50>  (198) 
8.66

>  <ChEMBL_ID>  (198) 
CHEMBL309950

>  <document_journal>  (198) 
J. Med. Chem.

>  <bao_endpoint>  (198) 
BAO_0000190

>  <potential_duplicate>  (198) 
False

>  <uo_units>  (198) 
UO_0000065

>  <canonical_smiles>  (198) 
COCCOCCN(CCOC)C(=O)CC1C(=O)Nc2cc(sc2S1(=O)=O)S(=O)(=O)N

>  <parent_molecule_chembl_id>  (198) 
CHEMBL309950

>  <assay_type>  (198) 
B

>  <src_id>  (198) 
1

>  <ligand_efficiency>  (198) 
{u'le': u'0.38', u'bei': u'17.34', u'sei': u'4', u'lle': u'10.63'}

>  <standard_flag>  (198) 
True

>  <molecule_chembl_id>  (198) 
CHEMBL309950

>  <target_organism>  (198) 
Homo sapiens

>  <standard_units>  (198) 
nM

>  <record_id>  (198) 
146896

>  <document_chembl_id>  (198) 
CHEMBL1127476

>  <bao_format>  (198) 
BAO_0000357

>  <data_validity_description>  (198) 
None

>  <activity_id>  (198) 
607937

>  <standard_type>  (198) 
IC50

>  <target_chembl_id>  (198) 
CHEMBL205

>  <data_validity_comment>  (198) 
None

>  <published_value>  (198) 
2.18E-9

>  <document_year>  (198) 
1994

>  <target_pref_name>  (198) 
Carbonic anhydrase II

>  <assay_chembl_id>  (198) 
CHEMBL656577

>  <standard_relation>  (198) 
=

>  <assay_description>  (198) 
Tested for ability to inhibit human erythrocyte carbonic-anhydrase-II- (HCA II) catalyzed carbon dioxide hydration

>  <published_relation>  (198) 
=

>  <standard_value>  (198) 
2.18

>  <qudt_units>  (198) 
http://www.openphacts.org/units/Nanomolar

>  <target_tax_id>  (198) 
9606

>  <bao_label>  (198) 
single protein format

>  <published_units>  (198) 
M

>  <pchembl_value>  (198) 
8.66

>  <published_type>  (198) 
I50

>  <activity_comment>  (198) 
None

$$$$

     RDKit          

 26 27  0  0  0  0  0  0  0  0999 V2000
    0.0000    0.0000    0.0000 C   0  0  0  0  0  0  0  0  0  0  0  0
    0.0000    0.0000    0.0000 O   0  0  0  0  0  0  0  0  0  0  0  0
    0.0000    0.0000    0.0000 C   0  0  0  0  0  0  0  0  0  0  0  0
    0.0000    0.0000    0.0000 C   0  0  0  0  0  0  0  0  0  0  0  0
    0.0000    0.0000    0.0000 N   0  0  0  0  0  0  0  0  0  0  0  0
    0.0000    0.0000    0.0000 C   0  0  0  0  0  0  0  0  0  0  0  0
    0.0000    0.0000    0.0000 C   0  0  0  0  0  0  0  0  0  0  0  0
    0.0000    0.0000    0.0000 O   0  0  0  0  0  0  0  0  0  0  0  0
    0.0000    0.0000    0.0000 C   0  0  0  0  0  0  0  0  0  0  0  0
    0.0000    0.0000    0.0000 C   0  0  0  0  0  0  0  0  0  0  0  0
    0.0000    0.0000    0.0000 C   0  0  0  0  0  0  0  0  0  0  0  0
    0.0000    0.0000    0.0000 C   0  0  0  0  0  0  0  0  0  0  0  0
    0.0000    0.0000    0.0000 C   0  0  0  0  0  0  0  0  0  0  0  0
    0.0000    0.0000    0.0000 N   0  0  0  0  0  0  0  0  0  0  0  0
    0.0000    0.0000    0.0000 C   0  0  0  0  0  0  0  0  0  0  0  0
    0.0000    0.0000    0.0000 C   0  0  0  0  0  0  0  0  0  0  0  0
    0.0000    0.0000    0.0000 C   0  0  0  0  0  0  0  0  0  0  0  0
    0.0000    0.0000    0.0000 S   0  0  0  0  0  0  0  0  0  0  0  0
    0.0000    0.0000    0.0000 C   0  0  0  0  0  0  0  0  0  0  0  0
    0.0000    0.0000    0.0000 S   0  0  0  0  0  0  0  0  0  0  0  0
    0.0000    0.0000    0.0000 O   0  0  0  0  0  0  0  0  0  0  0  0
    0.0000    0.0000    0.0000 O   0  0  0  0  0  0  0  0  0  0  0  0
    0.0000    0.0000    0.0000 S   0  0  0  0  0  0  0  0  0  0  0  0
    0.0000    0.0000    0.0000 O   0  0  0  0  0  0  0  0  0  0  0  0
    0.0000    0.0000    0.0000 O   0  0  0  0  0  0  0  0  0  0  0  0
    0.0000    0.0000    0.0000 N   0  0  0  0  0  0  0  0  0  0  0  0
  1  2  1  0
  2  3  1  0
  3  4  1  0
  4  5  1  0
  5  6  1  0
  6  7  1  0
  7  8  1  0
  8  9  1  0
  5 10  1  0
 10 11  1  0
 11 12  1  0
 12 13  1  0
 13 14  1  0
 14 15  1  0
 15 16  1  0
 16 17  2  0
 17 18  1  0
 18 19  1  0
 19 20  1  0
 20 21  2  0
 20 22  2  0
 17 23  1  0
 23 24  2  0
 23 25  2  0
 23 26  1  0
 20 12  1  0
 19 15  2  0
M  END
>  <pIC50>  (199) 
8.67

>  <ChEMBL_ID>  (199) 
CHEMBL309870

>  <document_journal>  (199) 
J. Med. Chem.

>  <bao_endpoint>  (199) 
BAO_0000190

>  <potential_duplicate>  (199) 
False

>  <uo_units>  (199) 
UO_0000065

>  <canonical_smiles>  (199) 
COCCN(CCOC)CCC1CNc2cc(sc2S1(=O)=O)S(=O)(=O)N

>  <parent_molecule_chembl_id>  (199) 
CHEMBL309870

>  <assay_type>  (199) 
B

>  <src_id>  (199) 
1

>  <ligand_efficiency>  (199) 
{u'le': u'0.46', u'bei': u'20.28', u'sei': u'5.01', u'lle': u'9.1'}

>  <standard_flag>  (199) 
True

>  <molecule_chembl_id>  (199) 
CHEMBL309870

>  <target_organism>  (199) 
Homo sapiens

>  <standard_units>  (199) 
nM

>  <record_id>  (199) 
146889

>  <document_chembl_id>  (199) 
CHEMBL1127476

>  <bao_format>  (199) 
BAO_0000357

>  <data_validity_description>  (199) 
None

>  <activity_id>  (199) 
610248

>  <standard_type>  (199) 
IC50

>  <target_chembl_id>  (199) 
CHEMBL205

>  <data_validity_comment>  (199) 
None

>  <published_value>  (199) 
2.14E-9

>  <document_year>  (199) 
1994

>  <target_pref_name>  (199) 
Carbonic anhydrase II

>  <assay_chembl_id>  (199) 
CHEMBL656577

>  <standard_relation>  (199) 
=

>  <assay_description>  (199) 
Tested for ability to inhibit human erythrocyte carbonic-anhydrase-II- (HCA II) catalyzed carbon dioxide hydration

>  <published_relation>  (199) 
=

>  <standard_value>  (199) 
2.14

>  <qudt_units>  (199) 
http://www.openphacts.org/units/Nanomolar

>  <target_tax_id>  (199) 
9606

>  <bao_label>  (199) 
single protein format

>  <published_units>  (199) 
M

>  <pchembl_value>  (199) 
8.67

>  <published_type>  (199) 
I50

>  <activity_comment>  (199) 
None

$$$$

     RDKit          

 16 17  0  0  0  0  0  0  0  0999 V2000
    0.0000    0.0000    0.0000 N   0  0  0  0  0  0  0  0  0  0  0  0
    0.0000    0.0000    0.0000 S   0  0  0  0  0  0  0  0  0  0  0  0
    0.0000    0.0000    0.0000 O   0  0  0  0  0  0  0  0  0  0  0  0
    0.0000    0.0000    0.0000 O   0  0  0  0  0  0  0  0  0  0  0  0
    0.0000    0.0000    0.0000 C   0  0  0  0  0  0  0  0  0  0  0  0
    0.0000    0.0000    0.0000 C   0  0  0  0  0  0  0  0  0  0  0  0
    0.0000    0.0000    0.0000 C   0  0  0  0  0  0  0  0  0  0  0  0
    0.0000    0.0000    0.0000 N   0  0  0  0  0  0  0  0  0  0  0  0
    0.0000    0.0000    0.0000 C   0  0  0  0  0  0  0  0  0  0  0  0
    0.0000    0.0000    0.0000 O   0  0  0  0  0  0  0  0  0  0  0  0
    0.0000    0.0000    0.0000 C   0  0  0  0  0  0  0  0  0  0  0  0
    0.0000    0.0000    0.0000 S   0  0  0  0  0  0  0  0  0  0  0  0
    0.0000    0.0000    0.0000 O   0  0  0  0  0  0  0  0  0  0  0  0
    0.0000    0.0000    0.0000 O   0  0  0  0  0  0  0  0  0  0  0  0
    0.0000    0.0000    0.0000 C   0  0  0  0  0  0  0  0  0  0  0  0
    0.0000    0.0000    0.0000 S   0  0  0  0  0  0  0  0  0  0  0  0
  1  2  1  0
  2  3  2  0
  2  4  2  0
  2  5  1  0
  5  6  2  0
  6  7  1  0
  7  8  1  0
  8  9  1  0
  9 10  2  0
  9 11  1  0
 11 12  1  0
 12 13  2  0
 12 14  2  0
 12 15  1  0
 15 16  1  0
 16  5  1  0
 15  7  2  0
M  END
>  <pIC50>  (200) 
8.43

>  <ChEMBL_ID>  (200) 
CHEMBL81148

>  <document_journal>  (200) 
J. Med. Chem.

>  <bao_endpoint>  (200) 
BAO_0000190

>  <potential_duplicate>  (200) 
False

>  <uo_units>  (200) 
UO_0000065

>  <canonical_smiles>  (200) 
NS(=O)(=O)c1cc2NC(=O)CS(=O)(=O)c2s1

>  <parent_molecule_chembl_id>  (200) 
CHEMBL81148

>  <assay_type>  (200) 
B

>  <src_id>  (200) 
1

>  <ligand_efficiency>  (200) 
{u'le': u'0.72', u'bei': u'29.87', u'sei': u'5.01', u'lle': u'9.65'}

>  <standard_flag>  (200) 
True

>  <molecule_chembl_id>  (200) 
CHEMBL81148

>  <target_organism>  (200) 
Homo sapiens

>  <standard_units>  (200) 
nM

>  <record_id>  (200) 
146901

>  <document_chembl_id>  (200) 
CHEMBL1127476

>  <bao_format>  (200) 
BAO_0000357

>  <data_validity_description>  (200) 
None

>  <activity_id>  (200) 
612714

>  <standard_type>  (200) 
IC50

>  <target_chembl_id>  (200) 
CHEMBL205

>  <data_validity_comment>  (200) 
None

>  <published_value>  (200) 
3.7E-9

>  <document_year>  (200) 
1994

>  <target_pref_name>  (200) 
Carbonic anhydrase II

>  <assay_chembl_id>  (200) 
CHEMBL656577

>  <standard_relation>  (200) 
=

>  <assay_description>  (200) 
Tested for ability to inhibit human erythrocyte carbonic-anhydrase-II- (HCA II) catalyzed carbon dioxide hydration

>  <published_relation>  (200) 
=

>  <standard_value>  (200) 
3.7

>  <qudt_units>  (200) 
http://www.openphacts.org/units/Nanomolar

>  <target_tax_id>  (200) 
9606

>  <bao_label>  (200) 
single protein format

>  <published_units>  (200) 
M

>  <pchembl_value>  (200) 
8.43

>  <published_type>  (200) 
I50

>  <activity_comment>  (200) 
None

$$$$

     RDKit          

 17 19  0  0  0  0  0  0  0  0999 V2000
    0.0000    0.0000    0.0000 N   0  0  0  0  0  0  0  0  0  0  0  0
    0.0000    0.0000    0.0000 S   0  0  0  0  0  0  0  0  0  0  0  0
    0.0000    0.0000    0.0000 O   0  0  0  0  0  0  0  0  0  0  0  0
    0.0000    0.0000    0.0000 O   0  0  0  0  0  0  0  0  0  0  0  0
    0.0000    0.0000    0.0000 C   0  0  0  0  0  0  0  0  0  0  0  0
    0.0000    0.0000    0.0000 C   0  0  0  0  0  0  0  0  0  0  0  0
    0.0000    0.0000    0.0000 C   0  0  0  0  0  0  0  0  0  0  0  0
    0.0000    0.0000    0.0000 N   0  0  0  0  0  0  0  0  0  0  0  0
    0.0000    0.0000    0.0000 C   0  0  0  0  0  0  0  0  0  0  0  0
    0.0000    0.0000    0.0000 C   0  0  0  0  0  0  0  0  0  0  0  0
    0.0000    0.0000    0.0000 C   0  0  0  0  0  0  0  0  0  0  0  0
    0.0000    0.0000    0.0000 C   0  0  0  0  0  0  0  0  0  0  0  0
    0.0000    0.0000    0.0000 S   0  0  0  0  0  0  0  0  0  0  0  0
    0.0000    0.0000    0.0000 O   0  0  0  0  0  0  0  0  0  0  0  0
    0.0000    0.0000    0.0000 O   0  0  0  0  0  0  0  0  0  0  0  0
    0.0000    0.0000    0.0000 C   0  0  0  0  0  0  0  0  0  0  0  0
    0.0000    0.0000    0.0000 S   0  0  0  0  0  0  0  0  0  0  0  0
  1  2  1  0
  2  3  2  0
  2  4  2  0
  2  5  1  0
  5  6  2  0
  6  7  1  0
  7  8  1  0
  8  9  1  0
  9 10  1  0
 10 11  1  0
 11 12  1  0
 10 13  1  0
 13 14  2  0
 13 15  2  0
 13 16  1  0
 16 17  1  0
 17  5  1  0
 16  7  2  0
 12 10  1  0
M  END
>  <pIC50>  (201) 
8.7

>  <ChEMBL_ID>  (201) 
CHEMBL79368

>  <document_journal>  (201) 
J. Med. Chem.

>  <bao_endpoint>  (201) 
BAO_0000190

>  <potential_duplicate>  (201) 
False

>  <uo_units>  (201) 
UO_0000065

>  <canonical_smiles>  (201) 
NS(=O)(=O)c1cc2NCC3(CC3)S(=O)(=O)c2s1

>  <parent_molecule_chembl_id>  (201) 
CHEMBL79368

>  <assay_type>  (201) 
B

>  <src_id>  (201) 
1

>  <ligand_efficiency>  (201) 
{u'le': u'0.7', u'bei': u'29.55', u'sei': u'5.75', u'lle': u'8.76'}

>  <standard_flag>  (201) 
True

>  <molecule_chembl_id>  (201) 
CHEMBL79368

>  <target_organism>  (201) 
Homo sapiens

>  <standard_units>  (201) 
nM

>  <record_id>  (201) 
146897

>  <document_chembl_id>  (201) 
CHEMBL1127476

>  <bao_format>  (201) 
BAO_0000357

>  <data_validity_description>  (201) 
None

>  <activity_id>  (201) 
615437

>  <standard_type>  (201) 
IC50

>  <target_chembl_id>  (201) 
CHEMBL205

>  <data_validity_comment>  (201) 
None

>  <published_value>  (201) 
2E-9

>  <document_year>  (201) 
1994

>  <target_pref_name>  (201) 
Carbonic anhydrase II

>  <assay_chembl_id>  (201) 
CHEMBL656577

>  <standard_relation>  (201) 
=

>  <assay_description>  (201) 
Tested for ability to inhibit human erythrocyte carbonic-anhydrase-II- (HCA II) catalyzed carbon dioxide hydration

>  <published_relation>  (201) 
=

>  <standard_value>  (201) 
2

>  <qudt_units>  (201) 
http://www.openphacts.org/units/Nanomolar

>  <target_tax_id>  (201) 
9606

>  <bao_label>  (201) 
single protein format

>  <published_units>  (201) 
M

>  <pchembl_value>  (201) 
8.7

>  <published_type>  (201) 
I50

>  <activity_comment>  (201) 
None

$$$$

     RDKit          

 22 23  0  0  0  0  0  0  0  0999 V2000
    0.0000    0.0000    0.0000 C   0  0  0  0  0  0  0  0  0  0  0  0
    0.0000    0.0000    0.0000 C   0  0  0  0  0  0  0  0  0  0  0  0
    0.0000    0.0000    0.0000 C   0  0  0  0  0  0  0  0  0  0  0  0
    0.0000    0.0000    0.0000 C   0  0  0  0  0  0  0  0  0  0  0  0
    0.0000    0.0000    0.0000 N   0  0  0  0  0  0  0  0  0  0  0  0
    0.0000    0.0000    0.0000 C   0  0  0  0  0  0  0  0  0  0  0  0
    0.0000    0.0000    0.0000 O   0  0  0  0  0  0  0  0  0  0  0  0
    0.0000    0.0000    0.0000 C   0  0  0  0  0  0  0  0  0  0  0  0
    0.0000    0.0000    0.0000 C   0  0  0  0  0  0  0  0  0  0  0  0
    0.0000    0.0000    0.0000 S   0  0  0  0  0  0  0  0  0  0  0  0
    0.0000    0.0000    0.0000 C   0  0  0  0  0  0  0  0  0  0  0  0
    0.0000    0.0000    0.0000 S   0  0  0  0  0  0  0  0  0  0  0  0
    0.0000    0.0000    0.0000 C   0  0  0  0  0  0  0  0  0  0  0  0
    0.0000    0.0000    0.0000 C   0  0  0  0  0  0  0  0  0  0  0  0
    0.0000    0.0000    0.0000 C   0  0  0  0  0  0  0  0  0  0  0  0
    0.0000    0.0000    0.0000 N   0  0  0  0  0  0  0  0  0  0  0  0
    0.0000    0.0000    0.0000 C   0  0  0  0  0  0  0  0  0  0  0  0
    0.0000    0.0000    0.0000 O   0  0  0  0  0  0  0  0  0  0  0  0
    0.0000    0.0000    0.0000 S   0  0  0  0  0  0  0  0  0  0  0  0
    0.0000    0.0000    0.0000 O   0  0  0  0  0  0  0  0  0  0  0  0
    0.0000    0.0000    0.0000 O   0  0  0  0  0  0  0  0  0  0  0  0
    0.0000    0.0000    0.0000 N   0  0  0  0  0  0  0  0  0  0  0  0
  1  2  1  0
  2  3  1  0
  2  4  1  0
  4  5  1  0
  5  6  1  0
  6  7  2  0
  6  8  1  0
  8  9  1  0
  9 10  1  0
 10 11  1  0
 11 12  1  0
 12 13  1  0
 13 14  2  0
 14 15  1  0
 15 16  1  0
 16 17  1  0
 17 18  2  0
 13 19  1  0
 19 20  2  0
 19 21  2  0
 19 22  1  0
 17  9  1  0
 15 11  2  0
M  END
>  <pIC50>  (202) 
8.34

>  <ChEMBL_ID>  (202) 
CHEMBL541211

>  <document_journal>  (202) 
J. Med. Chem.

>  <bao_endpoint>  (202) 
BAO_0000190

>  <potential_duplicate>  (202) 
False

>  <uo_units>  (202) 
UO_0000065

>  <canonical_smiles>  (202) 
CC(C)CNC(=O)CC1Sc2sc(cc2NC1=O)S(=O)(=O)N

>  <parent_molecule_chembl_id>  (202) 
CHEMBL541211

>  <assay_type>  (202) 
B

>  <src_id>  (202) 
1

>  <ligand_efficiency>  (202) 
{u'le': u'0.52', u'bei': u'22.94', u'sei': u'4.62', u'lle': u'7.91'}

>  <standard_flag>  (202) 
True

>  <molecule_chembl_id>  (202) 
CHEMBL541211

>  <target_organism>  (202) 
Homo sapiens

>  <standard_units>  (202) 
nM

>  <record_id>  (202) 
146891

>  <document_chembl_id>  (202) 
CHEMBL1127476

>  <bao_format>  (202) 
BAO_0000357

>  <data_validity_description>  (202) 
None

>  <activity_id>  (202) 
616813

>  <standard_type>  (202) 
IC50

>  <target_chembl_id>  (202) 
CHEMBL205

>  <data_validity_comment>  (202) 
None

>  <published_value>  (202) 
4.6E-9

>  <document_year>  (202) 
1994

>  <target_pref_name>  (202) 
Carbonic anhydrase II

>  <assay_chembl_id>  (202) 
CHEMBL656577

>  <standard_relation>  (202) 
=

>  <assay_description>  (202) 
Tested for ability to inhibit human erythrocyte carbonic-anhydrase-II- (HCA II) catalyzed carbon dioxide hydration

>  <published_relation>  (202) 
=

>  <standard_value>  (202) 
4.6

>  <qudt_units>  (202) 
http://www.openphacts.org/units/Nanomolar

>  <target_tax_id>  (202) 
9606

>  <bao_label>  (202) 
single protein format

>  <published_units>  (202) 
M

>  <pchembl_value>  (202) 
8.34

>  <published_type>  (202) 
I50

>  <activity_comment>  (202) 
None

$$$$

     RDKit          

 18 19  0  0  0  0  0  0  0  0999 V2000
    0.0000    0.0000    0.0000 N   0  0  0  0  0  0  0  0  0  0  0  0
    0.0000    0.0000    0.0000 S   0  0  0  0  0  0  0  0  0  0  0  0
    0.0000    0.0000    0.0000 O   0  0  0  0  0  0  0  0  0  0  0  0
    0.0000    0.0000    0.0000 O   0  0  0  0  0  0  0  0  0  0  0  0
    0.0000    0.0000    0.0000 C   0  0  0  0  0  0  0  0  0  0  0  0
    0.0000    0.0000    0.0000 C   0  0  0  0  0  0  0  0  0  0  0  0
    0.0000    0.0000    0.0000 C   0  0  0  0  0  0  0  0  0  0  0  0
    0.0000    0.0000    0.0000 N   0  0  0  0  0  0  0  0  0  0  0  0
    0.0000    0.0000    0.0000 C   0  0  0  0  0  0  0  0  0  0  0  0
    0.0000    0.0000    0.0000 C   0  0  0  0  0  0  0  0  0  0  0  0
    0.0000    0.0000    0.0000 C   0  0  0  0  0  0  0  0  0  0  0  0
    0.0000    0.0000    0.0000 C   0  0  0  0  0  0  0  0  0  0  0  0
    0.0000    0.0000    0.0000 O   0  0  0  0  0  0  0  0  0  0  0  0
    0.0000    0.0000    0.0000 S   0  0  0  0  0  0  0  0  0  0  0  0
    0.0000    0.0000    0.0000 O   0  0  0  0  0  0  0  0  0  0  0  0
    0.0000    0.0000    0.0000 O   0  0  0  0  0  0  0  0  0  0  0  0
    0.0000    0.0000    0.0000 C   0  0  0  0  0  0  0  0  0  0  0  0
    0.0000    0.0000    0.0000 S   0  0  0  0  0  0  0  0  0  0  0  0
  1  2  1  0
  2  3  2  0
  2  4  2  0
  2  5  1  0
  5  6  2  0
  6  7  1  0
  7  8  1  0
  8  9  1  0
  9 10  1  0
 10 11  1  0
 11 12  1  0
 12 13  1  0
 10 14  1  0
 14 15  2  0
 14 16  2  0
 14 17  1  0
 17 18  1  0
 18  5  1  0
 17  7  2  0
M  END
>  <pIC50>  (203) 
8.72

>  <ChEMBL_ID>  (203) 
CHEMBL310280

>  <document_journal>  (203) 
J. Med. Chem.

>  <bao_endpoint>  (203) 
BAO_0000190

>  <potential_duplicate>  (203) 
False

>  <uo_units>  (203) 
UO_0000065

>  <canonical_smiles>  (203) 
NS(=O)(=O)c1cc2NCC(CCO)S(=O)(=O)c2s1

>  <parent_molecule_chembl_id>  (203) 
CHEMBL310280

>  <assay_type>  (203) 
B

>  <src_id>  (203) 
1

>  <ligand_efficiency>  (203) 
{u'le': u'0.66', u'bei': u'27.92', u'sei': u'5.08', u'lle': u'9.57'}

>  <standard_flag>  (203) 
True

>  <molecule_chembl_id>  (203) 
CHEMBL310280

>  <target_organism>  (203) 
Homo sapiens

>  <standard_units>  (203) 
nM

>  <record_id>  (203) 
146900

>  <document_chembl_id>  (203) 
CHEMBL1127476

>  <bao_format>  (203) 
BAO_0000357

>  <data_validity_description>  (203) 
None

>  <activity_id>  (203) 
621673

>  <standard_type>  (203) 
IC50

>  <target_chembl_id>  (203) 
CHEMBL205

>  <data_validity_comment>  (203) 
None

>  <published_value>  (203) 
1.9E-9

>  <document_year>  (203) 
1994

>  <target_pref_name>  (203) 
Carbonic anhydrase II

>  <assay_chembl_id>  (203) 
CHEMBL656577

>  <standard_relation>  (203) 
=

>  <assay_description>  (203) 
Tested for ability to inhibit human erythrocyte carbonic-anhydrase-II- (HCA II) catalyzed carbon dioxide hydration

>  <published_relation>  (203) 
=

>  <standard_value>  (203) 
1.9

>  <qudt_units>  (203) 
http://www.openphacts.org/units/Nanomolar

>  <target_tax_id>  (203) 
9606

>  <bao_label>  (203) 
single protein format

>  <published_units>  (203) 
M

>  <pchembl_value>  (203) 
8.72

>  <published_type>  (203) 
I50

>  <activity_comment>  (203) 
None

$$$$

     RDKit          

 23 25  0  0  0  0  0  0  0  0999 V2000
    0.0000    0.0000    0.0000 N   0  0  0  0  0  0  0  0  0  0  0  0
    0.0000    0.0000    0.0000 S   0  0  0  0  0  0  0  0  0  0  0  0
    0.0000    0.0000    0.0000 O   0  0  0  0  0  0  0  0  0  0  0  0
    0.0000    0.0000    0.0000 O   0  0  0  0  0  0  0  0  0  0  0  0
    0.0000    0.0000    0.0000 C   0  0  0  0  0  0  0  0  0  0  0  0
    0.0000    0.0000    0.0000 C   0  0  0  0  0  0  0  0  0  0  0  0
    0.0000    0.0000    0.0000 C   0  0  0  0  0  0  0  0  0  0  0  0
    0.0000    0.0000    0.0000 N   0  0  0  0  0  0  0  0  0  0  0  0
    0.0000    0.0000    0.0000 C   0  0  0  0  0  0  0  0  0  0  0  0
    0.0000    0.0000    0.0000 C   0  0  0  0  0  0  0  0  0  0  0  0
    0.0000    0.0000    0.0000 C   0  0  0  0  0  0  0  0  0  0  0  0
    0.0000    0.0000    0.0000 C   0  0  0  0  0  0  0  0  0  0  0  0
    0.0000    0.0000    0.0000 N   0  0  0  0  0  0  0  0  0  0  0  0
    0.0000    0.0000    0.0000 C   0  0  0  0  0  0  0  0  0  0  0  0
    0.0000    0.0000    0.0000 C   0  0  0  0  0  0  0  0  0  0  0  0
    0.0000    0.0000    0.0000 O   0  0  0  0  0  0  0  0  0  0  0  0
    0.0000    0.0000    0.0000 C   0  0  0  0  0  0  0  0  0  0  0  0
    0.0000    0.0000    0.0000 C   0  0  0  0  0  0  0  0  0  0  0  0
    0.0000    0.0000    0.0000 S   0  0  0  0  0  0  0  0  0  0  0  0
    0.0000    0.0000    0.0000 O   0  0  0  0  0  0  0  0  0  0  0  0
    0.0000    0.0000    0.0000 O   0  0  0  0  0  0  0  0  0  0  0  0
    0.0000    0.0000    0.0000 C   0  0  0  0  0  0  0  0  0  0  0  0
    0.0000    0.0000    0.0000 S   0  0  0  0  0  0  0  0  0  0  0  0
  1  2  1  0
  2  3  2  0
  2  4  2  0
  2  5  1  0
  5  6  2  0
  6  7  1  0
  7  8  1  0
  8  9  1  0
  9 10  1  0
 10 11  1  0
 11 12  1  0
 12 13  1  0
 13 14  1  0
 14 15  1  0
 15 16  1  0
 16 17  1  0
 17 18  1  0
 10 19  1  0
 19 20  2  0
 19 21  2  0
 19 22  1  0
 22 23  1  0
 23  5  1  0
 22  7  2  0
 18 13  1  0
M  END
>  <pIC50>  (204) 
9.24

>  <ChEMBL_ID>  (204) 
CHEMBL79939

>  <document_journal>  (204) 
J. Med. Chem.

>  <bao_endpoint>  (204) 
BAO_0000190

>  <potential_duplicate>  (204) 
False

>  <uo_units>  (204) 
UO_0000065

>  <canonical_smiles>  (204) 
NS(=O)(=O)c1cc2NCC(CCN3CCOCC3)S(=O)(=O)c2s1

>  <parent_molecule_chembl_id>  (204) 
CHEMBL79939

>  <assay_type>  (204) 
B

>  <src_id>  (204) 
1

>  <ligand_efficiency>  (204) 
{u'le': u'0.55', u'bei': u'24.21', u'sei': u'5.64', u'lle': u'9.72'}

>  <standard_flag>  (204) 
True

>  <molecule_chembl_id>  (204) 
CHEMBL79939

>  <target_organism>  (204) 
Homo sapiens

>  <standard_units>  (204) 
nM

>  <record_id>  (204) 
146890

>  <document_chembl_id>  (204) 
CHEMBL1127476

>  <bao_format>  (204) 
BAO_0000357

>  <data_validity_description>  (204) 
None

>  <activity_id>  (204) 
623023

>  <standard_type>  (204) 
IC50

>  <target_chembl_id>  (204) 
CHEMBL205

>  <data_validity_comment>  (204) 
None

>  <published_value>  (204) 
5.8E-10

>  <document_year>  (204) 
1994

>  <target_pref_name>  (204) 
Carbonic anhydrase II

>  <assay_chembl_id>  (204) 
CHEMBL656577

>  <standard_relation>  (204) 
=

>  <assay_description>  (204) 
Tested for ability to inhibit human erythrocyte carbonic-anhydrase-II- (HCA II) catalyzed carbon dioxide hydration

>  <published_relation>  (204) 
=

>  <standard_value>  (204) 
0.58

>  <qudt_units>  (204) 
http://www.openphacts.org/units/Nanomolar

>  <target_tax_id>  (204) 
9606

>  <bao_label>  (204) 
single protein format

>  <published_units>  (204) 
M

>  <pchembl_value>  (204) 
9.24

>  <published_type>  (204) 
I50

>  <activity_comment>  (204) 
None

$$$$

     RDKit          

 16 17  0  0  0  0  0  0  0  0999 V2000
    0.0000    0.0000    0.0000 N   0  0  0  0  0  0  0  0  0  0  0  0
    0.0000    0.0000    0.0000 S   0  0  0  0  0  0  0  0  0  0  0  0
    0.0000    0.0000    0.0000 O   0  0  0  0  0  0  0  0  0  0  0  0
    0.0000    0.0000    0.0000 O   0  0  0  0  0  0  0  0  0  0  0  0
    0.0000    0.0000    0.0000 C   0  0  0  0  0  0  0  0  0  0  0  0
    0.0000    0.0000    0.0000 C   0  0  0  0  0  0  0  0  0  0  0  0
    0.0000    0.0000    0.0000 C   0  0  0  0  0  0  0  0  0  0  0  0
    0.0000    0.0000    0.0000 N   0  0  0  0  0  0  0  0  0  0  0  0
    0.0000    0.0000    0.0000 C   0  0  0  0  0  0  0  0  0  0  0  0
    0.0000    0.0000    0.0000 C   0  0  0  0  0  0  0  0  0  0  0  0
    0.0000    0.0000    0.0000 C   0  0  0  0  0  0  0  0  0  0  0  0
    0.0000    0.0000    0.0000 C   0  0  0  0  0  0  0  0  0  0  0  0
    0.0000    0.0000    0.0000 O   0  0  0  0  0  0  0  0  0  0  0  0
    0.0000    0.0000    0.0000 S   0  0  0  0  0  0  0  0  0  0  0  0
    0.0000    0.0000    0.0000 C   0  0  0  0  0  0  0  0  0  0  0  0
    0.0000    0.0000    0.0000 S   0  0  0  0  0  0  0  0  0  0  0  0
  1  2  1  0
  2  3  2  0
  2  4  2  0
  2  5  1  0
  5  6  2  0
  6  7  1  0
  7  8  1  0
  8  9  1  0
  9 10  1  0
 10 11  1  0
 11 12  1  0
 12 13  1  0
 10 14  1  0
 14 15  1  0
 15 16  1  0
 16  5  1  0
 15  7  2  0
M  END
>  <pIC50>  (205) 
8.5

>  <ChEMBL_ID>  (205) 
CHEMBL79474

>  <document_journal>  (205) 
J. Med. Chem.

>  <bao_endpoint>  (205) 
BAO_0000190

>  <potential_duplicate>  (205) 
False

>  <uo_units>  (205) 
UO_0000065

>  <canonical_smiles>  (205) 
NS(=O)(=O)c1cc2NCC(CCO)Sc2s1

>  <parent_molecule_chembl_id>  (205) 
CHEMBL79474

>  <assay_type>  (205) 
B

>  <src_id>  (205) 
1

>  <ligand_efficiency>  (205) 
{u'le': u'0.73', u'bei': u'30.31', u'sei': u'5.51', u'lle': u'8.33'}

>  <standard_flag>  (205) 
True

>  <molecule_chembl_id>  (205) 
CHEMBL79474

>  <target_organism>  (205) 
Homo sapiens

>  <standard_units>  (205) 
nM

>  <record_id>  (205) 
146888

>  <document_chembl_id>  (205) 
CHEMBL1127476

>  <bao_format>  (205) 
BAO_0000357

>  <data_validity_description>  (205) 
None

>  <activity_id>  (205) 
625485

>  <standard_type>  (205) 
IC50

>  <target_chembl_id>  (205) 
CHEMBL205

>  <data_validity_comment>  (205) 
None

>  <published_value>  (205) 
3.18E-9

>  <document_year>  (205) 
1994

>  <target_pref_name>  (205) 
Carbonic anhydrase II

>  <assay_chembl_id>  (205) 
CHEMBL656577

>  <standard_relation>  (205) 
=

>  <assay_description>  (205) 
Tested for ability to inhibit human erythrocyte carbonic-anhydrase-II- (HCA II) catalyzed carbon dioxide hydration

>  <published_relation>  (205) 
=

>  <standard_value>  (205) 
3.18

>  <qudt_units>  (205) 
http://www.openphacts.org/units/Nanomolar

>  <target_tax_id>  (205) 
9606

>  <bao_label>  (205) 
single protein format

>  <published_units>  (205) 
M

>  <pchembl_value>  (205) 
8.5

>  <published_type>  (205) 
I50

>  <activity_comment>  (205) 
None

$$$$

     RDKit          

 22 23  0  0  0  0  0  0  0  0999 V2000
    0.0000    0.0000    0.0000 C   0  0  0  0  0  0  0  0  0  0  0  0
    0.0000    0.0000    0.0000 C   0  0  0  0  0  0  0  0  0  0  0  0
    0.0000    0.0000    0.0000 C   0  0  0  0  0  0  0  0  0  0  0  0
    0.0000    0.0000    0.0000 C   0  0  0  0  0  0  0  0  0  0  0  0
    0.0000    0.0000    0.0000 N   0  0  0  0  0  0  0  0  0  0  0  0
    0.0000    0.0000    0.0000 C   0  0  0  0  0  0  0  0  0  0  0  0
    0.0000    0.0000    0.0000 C   0  0  0  0  0  0  0  0  0  0  0  0
    0.0000    0.0000    0.0000 C   0  0  0  0  0  0  0  0  0  0  0  0
    0.0000    0.0000    0.0000 C   0  0  0  0  0  0  0  0  0  0  0  0
    0.0000    0.0000    0.0000 N   0  0  0  0  0  0  0  0  0  0  0  0
    0.0000    0.0000    0.0000 C   0  0  0  0  0  0  0  0  0  0  0  0
    0.0000    0.0000    0.0000 C   0  0  0  0  0  0  0  0  0  0  0  0
    0.0000    0.0000    0.0000 C   0  0  0  0  0  0  0  0  0  0  0  0
    0.0000    0.0000    0.0000 S   0  0  0  0  0  0  0  0  0  0  0  0
    0.0000    0.0000    0.0000 C   0  0  0  0  0  0  0  0  0  0  0  0
    0.0000    0.0000    0.0000 S   0  0  0  0  0  0  0  0  0  0  0  0
    0.0000    0.0000    0.0000 O   0  0  0  0  0  0  0  0  0  0  0  0
    0.0000    0.0000    0.0000 O   0  0  0  0  0  0  0  0  0  0  0  0
    0.0000    0.0000    0.0000 S   0  0  0  0  0  0  0  0  0  0  0  0
    0.0000    0.0000    0.0000 O   0  0  0  0  0  0  0  0  0  0  0  0
    0.0000    0.0000    0.0000 O   0  0  0  0  0  0  0  0  0  0  0  0
    0.0000    0.0000    0.0000 N   0  0  0  0  0  0  0  0  0  0  0  0
  1  2  1  0
  2  3  1  0
  2  4  1  0
  4  5  1  0
  5  6  1  0
  6  7  1  0
  7  8  1  0
  8  9  1  0
  9 10  1  0
 10 11  1  0
 11 12  1  0
 12 13  2  0
 13 14  1  0
 14 15  1  0
 15 16  1  0
 16 17  2  0
 16 18  2  0
 13 19  1  0
 19 20  2  0
 19 21  2  0
 19 22  1  0
 16  8  1  0
 15 11  2  0
M  END
>  <pIC50>  (206) 
8.54

>  <ChEMBL_ID>  (206) 
CHEMBL83497

>  <document_journal>  (206) 
J. Med. Chem.

>  <bao_endpoint>  (206) 
BAO_0000190

>  <potential_duplicate>  (206) 
False

>  <uo_units>  (206) 
UO_0000065

>  <canonical_smiles>  (206) 
CC(C)CNCCC1CNc2cc(sc2S1(=O)=O)S(=O)(=O)N

>  <parent_molecule_chembl_id>  (206) 
CHEMBL83497

>  <assay_type>  (206) 
B

>  <src_id>  (206) 
1

>  <ligand_efficiency>  (206) 
{u'le': u'0.53', u'bei': u'23.23', u'sei': u'5.23', u'lle': u'8.05'}

>  <standard_flag>  (206) 
True

>  <molecule_chembl_id>  (206) 
CHEMBL83497

>  <target_organism>  (206) 
Homo sapiens

>  <standard_units>  (206) 
nM

>  <record_id>  (206) 
146899

>  <document_chembl_id>  (206) 
CHEMBL1127476

>  <bao_format>  (206) 
BAO_0000357

>  <data_validity_description>  (206) 
None

>  <activity_id>  (206) 
625489

>  <standard_type>  (206) 
IC50

>  <target_chembl_id>  (206) 
CHEMBL205

>  <data_validity_comment>  (206) 
None

>  <published_value>  (206) 
2.9E-9

>  <document_year>  (206) 
1994

>  <target_pref_name>  (206) 
Carbonic anhydrase II

>  <assay_chembl_id>  (206) 
CHEMBL656577

>  <standard_relation>  (206) 
=

>  <assay_description>  (206) 
Tested for ability to inhibit human erythrocyte carbonic-anhydrase-II- (HCA II) catalyzed carbon dioxide hydration

>  <published_relation>  (206) 
=

>  <standard_value>  (206) 
2.9

>  <qudt_units>  (206) 
http://www.openphacts.org/units/Nanomolar

>  <target_tax_id>  (206) 
9606

>  <bao_label>  (206) 
single protein format

>  <published_units>  (206) 
M

>  <pchembl_value>  (206) 
8.54

>  <published_type>  (206) 
I50

>  <activity_comment>  (206) 
None

$$$$

     RDKit          

 26 28  0  0  0  0  0  0  0  0999 V2000
    0.0000    0.0000    0.0000 C   0  0  0  0  0  0  0  0  0  0  0  0
    0.0000    0.0000    0.0000 C   0  0  0  0  0  0  0  0  0  0  0  0
    0.0000    0.0000    0.0000 C   0  0  0  0  0  0  0  0  0  0  0  0
    0.0000    0.0000    0.0000 C   0  0  0  0  0  0  0  0  0  0  0  0
    0.0000    0.0000    0.0000 C   0  0  0  0  0  0  0  0  0  0  0  0
    0.0000    0.0000    0.0000 C   0  0  0  0  0  0  0  0  0  0  0  0
    0.0000    0.0000    0.0000 C   0  0  0  0  0  0  0  0  0  0  0  0
    0.0000    0.0000    0.0000 C   0  0  0  0  0  0  0  0  0  0  0  0
    0.0000    0.0000    0.0000 C   0  0  0  0  0  0  0  0  0  0  0  0
    0.0000    0.0000    0.0000 C   0  0  0  0  0  0  0  0  0  0  0  0
    0.0000    0.0000    0.0000 N   0  0  0  0  0  0  0  0  0  0  0  0
    0.0000    0.0000    0.0000 N   0  0  0  0  0  0  0  0  0  0  0  0
    0.0000    0.0000    0.0000 C   0  0  0  0  0  0  0  0  0  0  0  0
    0.0000    0.0000    0.0000 C   0  0  0  0  0  0  0  0  0  0  0  0
    0.0000    0.0000    0.0000 C   0  0  0  0  0  0  0  0  0  0  0  0
    0.0000    0.0000    0.0000 C   0  0  0  0  0  0  0  0  0  0  0  0
    0.0000    0.0000    0.0000 C   0  0  0  0  0  0  0  0  0  0  0  0
    0.0000    0.0000    0.0000 C   0  0  0  0  0  0  0  0  0  0  0  0
    0.0000    0.0000    0.0000 S   0  0  0  0  0  0  0  0  0  0  0  0
    0.0000    0.0000    0.0000 O   0  0  0  0  0  0  0  0  0  0  0  0
    0.0000    0.0000    0.0000 O   0  0  0  0  0  0  0  0  0  0  0  0
    0.0000    0.0000    0.0000 N   0  0  0  0  0  0  0  0  0  0  0  0
    0.0000    0.0000    0.0000 C   0  0  0  0  0  0  0  0  0  0  0  0
    0.0000    0.0000    0.0000 F   0  0  0  0  0  0  0  0  0  0  0  0
    0.0000    0.0000    0.0000 F   0  0  0  0  0  0  0  0  0  0  0  0
    0.0000    0.0000    0.0000 F   0  0  0  0  0  0  0  0  0  0  0  0
  1  2  1  0
  2  3  2  0
  3  4  1  0
  4  5  2  0
  5  6  1  0
  6  7  2  0
  5  8  1  0
  8  9  2  0
  9 10  1  0
 10 11  2  0
 11 12  1  0
 12 13  1  0
 13 14  2  0
 14 15  1  0
 15 16  2  0
 16 17  1  0
 17 18  2  0
 16 19  1  0
 19 20  2  0
 19 21  2  0
 19 22  1  0
 10 23  1  0
 23 24  1  0
 23 25  1  0
 23 26  1  0
  7  2  1  0
 12  8  1  0
 18 13  1  0
M  END
>  <pIC50>  (207) 
7.445

>  <ChEMBL_ID>  (207) 
CHEMBL118

>  <document_journal>  (207) 
J. Med. Chem.

>  <bao_endpoint>  (207) 
BAO_0000190

>  <potential_duplicate>  (207) 
True

>  <uo_units>  (207) 
UO_0000065

>  <canonical_smiles>  (207) 
Cc1ccc(cc1)c2cc(nn2c3ccc(cc3)S(=O)(=O)N)C(F)(F)F

>  <parent_molecule_chembl_id>  (207) 
CHEMBL118

>  <assay_type>  (207) 
B

>  <src_id>  (207) 
1

>  <ligand_efficiency>  (207) 
{u'le': u'0.4', u'bei': u'20.13', u'sei': u'8.89', u'lle': u'3.25'}

>  <standard_flag>  (207) 
True

>  <molecule_chembl_id>  (207) 
CHEMBL118

>  <target_organism>  (207) 
Homo sapiens

>  <standard_units>  (207) 
nM

>  <record_id>  (207) 
298144

>  <document_chembl_id>  (207) 
CHEMBL1148392

>  <bao_format>  (207) 
BAO_0000357

>  <data_validity_description>  (207) 
None

>  <activity_id>  (207) 
651638

>  <standard_type>  (207) 
IC50

>  <target_chembl_id>  (207) 
CHEMBL205

>  <data_validity_comment>  (207) 
None

>  <published_value>  (207) 
21

>  <document_year>  (207) 
2004

>  <target_pref_name>  (207) 
Carbonic anhydrase II

>  <assay_chembl_id>  (207) 
CHEMBL657919

>  <standard_relation>  (207) 
=

>  <assay_description>  (207) 
Inhibitory activity against human carbonic anhydrase II was determined

>  <published_relation>  (207) 
=

>  <standard_value>  (207) 
21

>  <qudt_units>  (207) 
http://www.openphacts.org/units/Nanomolar

>  <target_tax_id>  (207) 
9606

>  <bao_label>  (207) 
single protein format

>  <published_units>  (207) 
nM

>  <pchembl_value>  (207) 
7.68

>  <published_type>  (207) 
IC50

>  <activity_comment>  (207) 
None

$$$$

     RDKit          

 22 24  0  0  0  0  0  0  0  0999 V2000
    0.0000    0.0000    0.0000 C   0  0  0  0  0  0  0  0  0  0  0  0
    0.0000    0.0000    0.0000 C   0  0  0  0  0  0  0  0  0  0  0  0
    0.0000    0.0000    0.0000 O   0  0  0  0  0  0  0  0  0  0  0  0
    0.0000    0.0000    0.0000 N   0  0  0  0  0  0  0  0  0  0  0  0
    0.0000    0.0000    0.0000 C   0  0  0  0  0  0  0  0  0  0  0  0
    0.0000    0.0000    0.0000 C   0  0  0  0  0  0  0  0  0  0  0  0
    0.0000    0.0000    0.0000 C   0  0  0  0  0  0  0  0  0  0  0  0
    0.0000    0.0000    0.0000 C   0  0  0  0  0  0  0  0  0  0  0  0
    0.0000    0.0000    0.0000 C   0  0  0  0  0  0  0  0  0  0  0  0
    0.0000    0.0000    0.0000 C   0  0  0  0  0  0  0  0  0  0  0  0
    0.0000    0.0000    0.0000 C   0  0  0  0  0  0  0  0  0  0  0  0
    0.0000    0.0000    0.0000 C   0  0  0  0  0  0  0  0  0  0  0  0
    0.0000    0.0000    0.0000 C   0  0  0  0  0  0  0  0  0  0  0  0
    0.0000    0.0000    0.0000 C   0  0  0  0  0  0  0  0  0  0  0  0
    0.0000    0.0000    0.0000 C   0  0  0  0  0  0  0  0  0  0  0  0
    0.0000    0.0000    0.0000 C   0  0  0  0  0  0  0  0  0  0  0  0
    0.0000    0.0000    0.0000 C   0  0  0  0  0  0  0  0  0  0  0  0
    0.0000    0.0000    0.0000 C   0  0  0  0  0  0  0  0  0  0  0  0
    0.0000    0.0000    0.0000 S   0  0  0  0  0  0  0  0  0  0  0  0
    0.0000    0.0000    0.0000 O   0  0  0  0  0  0  0  0  0  0  0  0
    0.0000    0.0000    0.0000 O   0  0  0  0  0  0  0  0  0  0  0  0
    0.0000    0.0000    0.0000 N   0  0  0  0  0  0  0  0  0  0  0  0
  1  2  1  0
  2  3  1  0
  3  4  1  0
  4  5  2  0
  5  6  1  0
  6  7  2  0
  7  8  1  0
  8  9  2  0
  9 10  1  0
 10 11  2  0
  5 12  1  0
 12 13  1  0
 13 14  2  0
 14 15  1  0
 15 16  2  0
 16 17  1  0
 17 18  2  0
 16 19  1  0
 19 20  2  0
 19 21  2  0
 19 22  1  0
 12  2  2  0
 11  6  1  0
 18 13  1  0
M  END
>  <pIC50>  (208) 
6.69333333333

>  <ChEMBL_ID>  (208) 
CHEMBL865

>  <document_journal>  (208) 
J. Med. Chem.

>  <bao_endpoint>  (208) 
BAO_0000190

>  <potential_duplicate>  (208) 
True

>  <uo_units>  (208) 
UO_0000065

>  <canonical_smiles>  (208) 
Cc1onc(c2ccccc2)c1c3ccc(cc3)S(=O)(=O)N

>  <parent_molecule_chembl_id>  (208) 
CHEMBL865

>  <assay_type>  (208) 
B

>  <src_id>  (208) 
1

>  <ligand_efficiency>  (208) 
{u'le': u'0.46', u'bei': u'23.43', u'sei': u'7.79', u'lle': u'4.77'}

>  <standard_flag>  (208) 
True

>  <molecule_chembl_id>  (208) 
CHEMBL865

>  <target_organism>  (208) 
Homo sapiens

>  <standard_units>  (208) 
nM

>  <record_id>  (208) 
298148

>  <document_chembl_id>  (208) 
CHEMBL1148392

>  <bao_format>  (208) 
BAO_0000357

>  <data_validity_description>  (208) 
None

>  <activity_id>  (208) 
666272

>  <standard_type>  (208) 
IC50

>  <target_chembl_id>  (208) 
CHEMBL205

>  <data_validity_comment>  (208) 
None

>  <published_value>  (208) 
43

>  <document_year>  (208) 
2004

>  <target_pref_name>  (208) 
Carbonic anhydrase II

>  <assay_chembl_id>  (208) 
CHEMBL657919

>  <standard_relation>  (208) 
=

>  <assay_description>  (208) 
Inhibitory activity against human carbonic anhydrase II was determined

>  <published_relation>  (208) 
=

>  <standard_value>  (208) 
43

>  <qudt_units>  (208) 
http://www.openphacts.org/units/Nanomolar

>  <target_tax_id>  (208) 
9606

>  <bao_label>  (208) 
single protein format

>  <published_units>  (208) 
nM

>  <pchembl_value>  (208) 
7.37

>  <published_type>  (208) 
IC50

>  <activity_comment>  (208) 
None

$$$$

     RDKit          

 21 23  0  0  0  0  0  0  0  0999 V2000
    0.0000    0.0000    0.0000 N   0  0  0  0  0  0  0  0  0  0  0  0
    0.0000    0.0000    0.0000 S   0  0  0  0  0  0  0  0  0  0  0  0
    0.0000    0.0000    0.0000 O   0  0  0  0  0  0  0  0  0  0  0  0
    0.0000    0.0000    0.0000 O   0  0  0  0  0  0  0  0  0  0  0  0
    0.0000    0.0000    0.0000 O   0  0  0  0  0  0  0  0  0  0  0  0
    0.0000    0.0000    0.0000 C   0  0  0  0  0  0  0  0  0  0  0  0
    0.0000    0.0000    0.0000 C   0  0  0  0  0  0  0  0  0  0  0  0
    0.0000    0.0000    0.0000 C   0  0  0  0  0  0  0  0  0  0  0  0
    0.0000    0.0000    0.0000 C   0  0  0  0  0  0  0  0  0  0  0  0
    0.0000    0.0000    0.0000 C   0  0  0  0  0  0  0  0  0  0  0  0
    0.0000    0.0000    0.0000 C   0  0  0  0  0  0  0  0  0  0  0  0
    0.0000    0.0000    0.0000 C   0  0  0  0  0  0  0  0  0  0  0  0
    0.0000    0.0000    0.0000 C   0  0  0  0  0  0  0  0  0  0  0  0
    0.0000    0.0000    0.0000 C   0  0  0  0  0  0  0  0  0  0  0  0
    0.0000    0.0000    0.0000 C   0  0  0  0  0  0  0  0  0  0  0  0
    0.0000    0.0000    0.0000 C   0  0  0  0  0  0  0  0  0  0  0  0
    0.0000    0.0000    0.0000 C   0  0  0  0  0  0  0  0  0  0  0  0
    0.0000    0.0000    0.0000 O   0  0  0  0  0  0  0  0  0  0  0  0
    0.0000    0.0000    0.0000 O   0  0  0  0  0  0  0  0  0  0  0  0
    0.0000    0.0000    0.0000 C   0  0  0  0  0  0  0  0  0  0  0  0
    0.0000    0.0000    0.0000 C   0  0  0  0  0  0  0  0  0  0  0  0
  1  2  1  0
  2  3  2  0
  2  4  2  0
  2  5  1  0
  5  6  1  0
  6  7  2  0
  7  8  1  0
  8  9  2  0
  9 10  1  0
 10 11  2  0
 11 12  1  0
 12 13  1  0
 13 14  1  0
 14 15  1  0
 15 16  1  0
 11 17  1  0
 17 18  2  0
 17 19  1  0
 19 20  1  0
 20 21  2  0
 21  6  1  0
 20  9  1  0
 16 10  1  0
M  END
>  <pIC50>  (209) 
7.77

>  <ChEMBL_ID>  (209) 
CHEMBL286738

>  <document_journal>  (209) 
Bioorg. Med. Chem. Lett.

>  <bao_endpoint>  (209) 
BAO_0000190

>  <potential_duplicate>  (209) 
False

>  <uo_units>  (209) 
UO_0000065

>  <canonical_smiles>  (209) 
NS(=O)(=O)Oc1ccc2C3=C(CCCCC3)C(=O)Oc2c1

>  <parent_molecule_chembl_id>  (209) 
CHEMBL286738

>  <assay_type>  (209) 
B

>  <src_id>  (209) 
1

>  <ligand_efficiency>  (209) 
{u'le': u'0.51', u'bei': u'25.12', u'sei': u'7.47', u'lle': u'5.24'}

>  <standard_flag>  (209) 
True

>  <molecule_chembl_id>  (209) 
CHEMBL286738

>  <target_organism>  (209) 
Homo sapiens

>  <standard_units>  (209) 
nM

>  <record_id>  (209) 
334875

>  <document_chembl_id>  (209) 
CHEMBL1136620

>  <bao_format>  (209) 
BAO_0000357

>  <data_validity_description>  (209) 
None

>  <activity_id>  (209) 
758180

>  <standard_type>  (209) 
IC50

>  <target_chembl_id>  (209) 
CHEMBL205

>  <data_validity_comment>  (209) 
None

>  <published_value>  (209) 
17

>  <document_year>  (209) 
2003

>  <target_pref_name>  (209) 
Carbonic anhydrase II

>  <assay_chembl_id>  (209) 
CHEMBL657915

>  <standard_relation>  (209) 
=

>  <assay_description>  (209) 
Compound was tested for inhibition of human carbonic anhydrase (hCA II)

>  <published_relation>  (209) 
=

>  <standard_value>  (209) 
17

>  <qudt_units>  (209) 
http://www.openphacts.org/units/Nanomolar

>  <target_tax_id>  (209) 
9606

>  <bao_label>  (209) 
single protein format

>  <published_units>  (209) 
nM

>  <pchembl_value>  (209) 
7.77

>  <published_type>  (209) 
IC50

>  <activity_comment>  (209) 
None

$$$$

     RDKit          

 30 33  0  0  0  0  0  0  0  0999 V2000
    0.0000    0.0000    0.0000 C   0  0  0  0  0  0  0  0  0  0  0  0
    0.0000    0.0000    0.0000 C   0  0  0  0  0  0  0  0  0  0  0  0
    0.0000    0.0000    0.0000 C   0  0  0  0  0  0  0  0  0  0  0  0
    0.0000    0.0000    0.0000 C   0  0  0  0  0  0  0  0  0  0  0  0
    0.0000    0.0000    0.0000 C   0  0  0  0  0  0  0  0  0  0  0  0
    0.0000    0.0000    0.0000 C   0  0  0  0  0  0  0  0  0  0  0  0
    0.0000    0.0000    0.0000 C   0  0  0  0  0  0  0  0  0  0  0  0
    0.0000    0.0000    0.0000 C   0  0  0  0  0  0  0  0  0  0  0  0
    0.0000    0.0000    0.0000 C   0  0  0  0  0  0  0  0  0  0  0  0
    0.0000    0.0000    0.0000 C   0  0  0  0  0  0  0  0  0  0  0  0
    0.0000    0.0000    0.0000 C   0  0  0  0  0  0  0  0  0  0  0  0
    0.0000    0.0000    0.0000 C   0  0  0  0  0  0  0  0  0  0  0  0
    0.0000    0.0000    0.0000 C   0  0  0  0  0  0  0  0  0  0  0  0
    0.0000    0.0000    0.0000 C   0  0  0  0  0  0  0  0  0  0  0  0
    0.0000    0.0000    0.0000 C   0  0  0  0  0  0  0  0  0  0  0  0
    0.0000    0.0000    0.0000 C   0  0  0  0  0  0  0  0  0  0  0  0
    0.0000    0.0000    0.0000 C   0  0  0  0  0  0  0  0  0  0  0  0
    0.0000    0.0000    0.0000 C   0  0  0  0  0  0  0  0  0  0  0  0
    0.0000    0.0000    0.0000 C   0  0  0  0  0  0  0  0  0  0  0  0
    0.0000    0.0000    0.0000 C   0  0  0  0  0  0  0  0  0  0  0  0
    0.0000    0.0000    0.0000 O   0  0  0  0  0  0  0  0  0  0  0  0
    0.0000    0.0000    0.0000 S   0  0  0  0  0  0  0  0  0  0  0  0
    0.0000    0.0000    0.0000 O   0  0  0  0  0  0  0  0  0  0  0  0
    0.0000    0.0000    0.0000 O   0  0  0  0  0  0  0  0  0  0  0  0
    0.0000    0.0000    0.0000 N   0  0  0  0  0  0  0  0  0  0  0  0
    0.0000    0.0000    0.0000 O   0  0  0  0  0  0  0  0  0  0  0  0
    0.0000    0.0000    0.0000 S   0  0  0  0  0  0  0  0  0  0  0  0
    0.0000    0.0000    0.0000 O   0  0  0  0  0  0  0  0  0  0  0  0
    0.0000    0.0000    0.0000 O   0  0  0  0  0  0  0  0  0  0  0  0
    0.0000    0.0000    0.0000 N   0  0  0  0  0  0  0  0  0  0  0  0
  1  2  1  0
  2  3  1  0
  3  4  2  0
  4  5  1  0
  5  6  1  0
  6  7  1  0
  7  8  1  0
  8  9  1  0
  9 10  1  0
  9 11  1  0
 11 12  1  0
 12 13  1  0
 13 14  1  0
 14 15  1  0
 15 16  1  0
 16 17  1  0
 17 18  1  0
 18 19  1  0
 19 20  2  0
 20 21  1  0
 21 22  1  0
 22 23  2  0
 22 24  2  0
 22 25  1  0
 11 26  1  0
 26 27  1  0
 27 28  2  0
 27 29  2  0
 27 30  1  0
 20  3  1  0
 18  5  2  0
 15  6  1  0
 14  9  1  0
M  END
>  <pIC50>  (210) 
6.54

>  <ChEMBL_ID>  (210) 
CHEMBL425287

>  <document_journal>  (210) 
Bioorg. Med. Chem. Lett.

>  <bao_endpoint>  (210) 
BAO_0000190

>  <potential_duplicate>  (210) 
False

>  <uo_units>  (210) 
UO_0000065

>  <canonical_smiles>  (210) 
CCc1cc2[C@H]3CC[C@]4(C)[C@H](CC[C@H]4[C@@H]3CCc2cc1OS(=O)(=O)N)OS(=O)(=O)N

>  <parent_molecule_chembl_id>  (210) 
CHEMBL425287

>  <assay_type>  (210) 
B

>  <src_id>  (210) 
1

>  <ligand_efficiency>  (210) 
{u'le': u'0.3', u'bei': u'14.26', u'sei': u'4.2', u'lle': u'3.62'}

>  <standard_flag>  (210) 
True

>  <molecule_chembl_id>  (210) 
CHEMBL425287

>  <target_organism>  (210) 
Homo sapiens

>  <standard_units>  (210) 
nM

>  <record_id>  (210) 
334876

>  <document_chembl_id>  (210) 
CHEMBL1136620

>  <bao_format>  (210) 
BAO_0000357

>  <data_validity_description>  (210) 
None

>  <activity_id>  (210) 
771153

>  <standard_type>  (210) 
IC50

>  <target_chembl_id>  (210) 
CHEMBL205

>  <data_validity_comment>  (210) 
None

>  <published_value>  (210) 
290

>  <document_year>  (210) 
2003

>  <target_pref_name>  (210) 
Carbonic anhydrase II

>  <assay_chembl_id>  (210) 
CHEMBL657915

>  <standard_relation>  (210) 
=

>  <assay_description>  (210) 
Compound was tested for inhibition of human carbonic anhydrase (hCA II)

>  <published_relation>  (210) 
=

>  <standard_value>  (210) 
290

>  <qudt_units>  (210) 
http://www.openphacts.org/units/Nanomolar

>  <target_tax_id>  (210) 
9606

>  <bao_label>  (210) 
single protein format

>  <published_units>  (210) 
nM

>  <pchembl_value>  (210) 
6.54

>  <published_type>  (210) 
IC50

>  <activity_comment>  (210) 
None

$$$$

     RDKit          

 25 27  0  0  0  0  0  0  0  0999 V2000
    0.0000    0.0000    0.0000 C   0  0  0  0  0  0  0  0  0  0  0  0
    0.0000    0.0000    0.0000 C   0  0  0  0  0  0  0  0  0  0  0  0
    0.0000    0.0000    0.0000 C   0  0  0  0  0  0  0  0  0  0  0  0
    0.0000    0.0000    0.0000 C   0  0  0  0  0  0  0  0  0  0  0  0
    0.0000    0.0000    0.0000 C   0  0  0  0  0  0  0  0  0  0  0  0
    0.0000    0.0000    0.0000 C   0  0  0  0  0  0  0  0  0  0  0  0
    0.0000    0.0000    0.0000 C   0  0  0  0  0  0  0  0  0  0  0  0
    0.0000    0.0000    0.0000 C   0  0  0  0  0  0  0  0  0  0  0  0
    0.0000    0.0000    0.0000 C   0  0  0  0  0  0  0  0  0  0  0  0
    0.0000    0.0000    0.0000 C   0  0  0  0  0  0  0  0  0  0  0  0
    0.0000    0.0000    0.0000 C   0  0  0  0  0  0  0  0  0  0  0  0
    0.0000    0.0000    0.0000 C   0  0  0  0  0  0  0  0  0  0  0  0
    0.0000    0.0000    0.0000 O   0  0  0  0  0  0  0  0  0  0  0  0
    0.0000    0.0000    0.0000 O   0  0  0  0  0  0  0  0  0  0  0  0
    0.0000    0.0000    0.0000 C   0  0  0  0  0  0  0  0  0  0  0  0
    0.0000    0.0000    0.0000 C   0  0  0  0  0  0  0  0  0  0  0  0
    0.0000    0.0000    0.0000 C   0  0  0  0  0  0  0  0  0  0  0  0
    0.0000    0.0000    0.0000 O   0  0  0  0  0  0  0  0  0  0  0  0
    0.0000    0.0000    0.0000 S   0  0  0  0  0  0  0  0  0  0  0  0
    0.0000    0.0000    0.0000 O   0  0  0  0  0  0  0  0  0  0  0  0
    0.0000    0.0000    0.0000 O   0  0  0  0  0  0  0  0  0  0  0  0
    0.0000    0.0000    0.0000 N   0  0  0  0  0  0  0  0  0  0  0  0
    0.0000    0.0000    0.0000 C   0  0  0  0  0  0  0  0  0  0  0  0
    0.0000    0.0000    0.0000 C   0  0  0  0  0  0  0  0  0  0  0  0
    0.0000    0.0000    0.0000 C   0  0  0  0  0  0  0  0  0  0  0  0
  1  2  1  0
  2  3  2  0
  3  4  1  0
  4  5  1  0
  5  6  1  0
  6  7  1  0
  7  8  1  0
  8  9  1  0
  9 10  1  0
 10 11  1  0
  3 12  1  0
 12 13  2  0
 12 14  1  0
 14 15  1  0
 15 16  2  0
 16 17  1  0
 17 18  1  0
 18 19  1  0
 19 20  2  0
 19 21  2  0
 19 22  1  0
 17 23  2  0
 23 24  1  0
 24 25  2  0
 25  2  1  0
 11  6  1  0
 25 15  1  0
M  END
>  <pIC50>  (211) 
7.82

>  <ChEMBL_ID>  (211) 
CHEMBL167368

>  <document_journal>  (211) 
Bioorg. Med. Chem. Lett.

>  <bao_endpoint>  (211) 
BAO_0000190

>  <potential_duplicate>  (211) 
False

>  <uo_units>  (211) 
UO_0000065

>  <canonical_smiles>  (211) 
CC1=C(CCC2CCCCC2)C(=O)Oc3cc(OS(=O)(=O)N)ccc13

>  <parent_molecule_chembl_id>  (211) 
CHEMBL167368

>  <assay_type>  (211) 
B

>  <src_id>  (211) 
1

>  <ligand_efficiency>  (211) 
{u'le': u'0.43', u'bei': u'21.41', u'sei': u'7.52', u'lle': u'3.67'}

>  <standard_flag>  (211) 
True

>  <molecule_chembl_id>  (211) 
CHEMBL167368

>  <target_organism>  (211) 
Homo sapiens

>  <standard_units>  (211) 
nM

>  <record_id>  (211) 
334872

>  <document_chembl_id>  (211) 
CHEMBL1136620

>  <bao_format>  (211) 
BAO_0000357

>  <data_validity_description>  (211) 
None

>  <activity_id>  (211) 
772279

>  <standard_type>  (211) 
IC50

>  <target_chembl_id>  (211) 
CHEMBL205

>  <data_validity_comment>  (211) 
None

>  <published_value>  (211) 
15

>  <document_year>  (211) 
2003

>  <target_pref_name>  (211) 
Carbonic anhydrase II

>  <assay_chembl_id>  (211) 
CHEMBL657915

>  <standard_relation>  (211) 
=

>  <assay_description>  (211) 
Compound was tested for inhibition of human carbonic anhydrase (hCA II)

>  <published_relation>  (211) 
=

>  <standard_value>  (211) 
15

>  <qudt_units>  (211) 
http://www.openphacts.org/units/Nanomolar

>  <target_tax_id>  (211) 
9606

>  <bao_label>  (211) 
single protein format

>  <published_units>  (211) 
nM

>  <pchembl_value>  (211) 
7.82

>  <published_type>  (211) 
IC50

>  <activity_comment>  (211) 
None

$$$$

     RDKit          

 24 27  0  0  0  0  0  0  0  0999 V2000
    0.0000    0.0000    0.0000 C   0  0  0  0  0  0  0  0  0  0  0  0
    0.0000    0.0000    0.0000 C   0  0  0  0  0  0  0  0  0  0  0  0
    0.0000    0.0000    0.0000 C   0  0  0  0  0  0  0  0  0  0  0  0
    0.0000    0.0000    0.0000 C   0  0  0  0  0  0  0  0  0  0  0  0
    0.0000    0.0000    0.0000 C   0  0  0  0  0  0  0  0  0  0  0  0
    0.0000    0.0000    0.0000 C   0  0  0  0  0  0  0  0  0  0  0  0
    0.0000    0.0000    0.0000 C   0  0  0  0  0  0  0  0  0  0  0  0
    0.0000    0.0000    0.0000 C   0  0  0  0  0  0  0  0  0  0  0  0
    0.0000    0.0000    0.0000 C   0  0  0  0  0  0  0  0  0  0  0  0
    0.0000    0.0000    0.0000 C   0  0  0  0  0  0  0  0  0  0  0  0
    0.0000    0.0000    0.0000 C   0  0  0  0  0  0  0  0  0  0  0  0
    0.0000    0.0000    0.0000 O   0  0  0  0  0  0  0  0  0  0  0  0
    0.0000    0.0000    0.0000 S   0  0  0  0  0  0  0  0  0  0  0  0
    0.0000    0.0000    0.0000 O   0  0  0  0  0  0  0  0  0  0  0  0
    0.0000    0.0000    0.0000 O   0  0  0  0  0  0  0  0  0  0  0  0
    0.0000    0.0000    0.0000 N   0  0  0  0  0  0  0  0  0  0  0  0
    0.0000    0.0000    0.0000 C   0  0  0  0  0  0  0  0  0  0  0  0
    0.0000    0.0000    0.0000 C   0  0  0  0  0  0  0  0  0  0  0  0
    0.0000    0.0000    0.0000 C   0  0  0  0  0  0  0  0  0  0  0  0
    0.0000    0.0000    0.0000 C   0  0  0  0  0  0  0  0  0  0  0  0
    0.0000    0.0000    0.0000 C   0  0  0  0  0  0  0  0  0  0  0  0
    0.0000    0.0000    0.0000 C   0  0  0  0  0  0  0  0  0  0  0  0
    0.0000    0.0000    0.0000 C   0  0  0  0  0  0  0  0  0  0  0  0
    0.0000    0.0000    0.0000 O   0  0  0  0  0  0  0  0  0  0  0  0
  1  2  1  0
  2  3  1  0
  3  4  1  0
  4  5  1  0
  5  6  1  0
  6  7  1  0
  7  8  1  0
  8  9  1  0
  9 10  2  0
 10 11  1  0
 11 12  1  0
 12 13  1  0
 13 14  2  0
 13 15  2  0
 13 16  1  0
 11 17  2  0
 17 18  1  0
 18 19  2  0
  6 20  1  0
 20 21  1  0
 21 22  1  0
 22 23  1  0
 23 24  2  0
 20  2  1  0
 23  2  1  0
 19  5  1  0
 19  9  1  0
M  END
>  <pIC50>  (212) 
7.664

>  <ChEMBL_ID>  (212) 
CHEMBL122708

>  <document_journal>  (212) 
Bioorg. Med. Chem. Lett.

>  <bao_endpoint>  (212) 
BAO_0000190

>  <potential_duplicate>  (212) 
False

>  <uo_units>  (212) 
UO_0000065

>  <canonical_smiles>  (212) 
C[C@]12CC[C@H]3[C@@H](CCc4cc(OS(=O)(=O)N)ccc34)[C@@H]1CCC2=O

>  <parent_molecule_chembl_id>  (212) 
CHEMBL122708

>  <assay_type>  (212) 
B

>  <src_id>  (212) 
1

>  <ligand_efficiency>  (212) 
{u'le': u'0.46', u'bei': u'23.02', u'sei': u'8.48', u'lle': u'5.13'}

>  <standard_flag>  (212) 
True

>  <molecule_chembl_id>  (212) 
CHEMBL122708

>  <target_organism>  (212) 
Homo sapiens

>  <standard_units>  (212) 
nM

>  <record_id>  (212) 
334874

>  <document_chembl_id>  (212) 
CHEMBL1136620

>  <bao_format>  (212) 
BAO_0000357

>  <data_validity_description>  (212) 
None

>  <activity_id>  (212) 
781419

>  <standard_type>  (212) 
IC50

>  <target_chembl_id>  (212) 
CHEMBL205

>  <data_validity_comment>  (212) 
None

>  <published_value>  (212) 
9

>  <document_year>  (212) 
2003

>  <target_pref_name>  (212) 
Carbonic anhydrase II

>  <assay_chembl_id>  (212) 
CHEMBL657915

>  <standard_relation>  (212) 
=

>  <assay_description>  (212) 
Compound was tested for inhibition of human carbonic anhydrase (hCA II)

>  <published_relation>  (212) 
=

>  <standard_value>  (212) 
9

>  <qudt_units>  (212) 
http://www.openphacts.org/units/Nanomolar

>  <target_tax_id>  (212) 
9606

>  <bao_label>  (212) 
single protein format

>  <published_units>  (212) 
nM

>  <pchembl_value>  (212) 
8.05

>  <published_type>  (212) 
IC50

>  <activity_comment>  (212) 
None

$$$$

     RDKit          

 22 24  0  0  0  0  0  0  0  0999 V2000
    0.0000    0.0000    0.0000 C   0  0  0  0  0  0  0  0  0  0  0  0
    0.0000    0.0000    0.0000 C   0  0  0  0  0  0  0  0  0  0  0  0
    0.0000    0.0000    0.0000 C   0  0  0  0  0  0  0  0  0  0  0  0
    0.0000    0.0000    0.0000 O   0  0  0  0  0  0  0  0  0  0  0  0
    0.0000    0.0000    0.0000 C   0  0  0  0  0  0  0  0  0  0  0  0
    0.0000    0.0000    0.0000 C   0  0  0  0  0  0  0  0  0  0  0  0
    0.0000    0.0000    0.0000 O   0  0  0  0  0  0  0  0  0  0  0  0
    0.0000    0.0000    0.0000 S   0  0  0  0  0  0  0  0  0  0  0  0
    0.0000    0.0000    0.0000 O   0  0  0  0  0  0  0  0  0  0  0  0
    0.0000    0.0000    0.0000 O   0  0  0  0  0  0  0  0  0  0  0  0
    0.0000    0.0000    0.0000 O   0  0  0  0  0  0  0  0  0  0  0  0
    0.0000    0.0000    0.0000 C   0  0  0  0  0  0  0  0  0  0  0  0
    0.0000    0.0000    0.0000 C   0  0  0  0  0  0  0  0  0  0  0  0
    0.0000    0.0000    0.0000 O   0  0  0  0  0  0  0  0  0  0  0  0
    0.0000    0.0000    0.0000 C   0  0  0  0  0  0  0  0  0  0  0  0
    0.0000    0.0000    0.0000 C   0  0  0  0  0  0  0  0  0  0  0  0
    0.0000    0.0000    0.0000 O   0  0  0  0  0  0  0  0  0  0  0  0
    0.0000    0.0000    0.0000 S   0  0  0  0  0  0  0  0  0  0  0  0
    0.0000    0.0000    0.0000 O   0  0  0  0  0  0  0  0  0  0  0  0
    0.0000    0.0000    0.0000 O   0  0  0  0  0  0  0  0  0  0  0  0
    0.0000    0.0000    0.0000 N   0  0  0  0  0  0  0  0  0  0  0  0
    0.0000    0.0000    0.0000 O   0  0  0  0  0  0  0  0  0  0  0  0
  1  2  1  0
  2  3  1  0
  2  4  1  0
  4  5  1  0
  5  6  1  0
  6  7  1  0
  7  8  1  0
  8  9  2  0
  8 10  2  0
  8 11  1  0
 11 12  1  0
 12 13  1  0
 13 14  1  0
 14 15  1  0
 15 16  1  0
 16 17  1  0
 17 18  1  0
 18 19  2  0
 18 20  2  0
 18 21  1  0
 15 22  1  0
 22  2  1  0
 15  5  1  0
 12  6  1  0
M  END
>  <pIC50>  (213) 
7.44

>  <ChEMBL_ID>  (213) 
CHEMBL417656

>  <document_journal>  (213) 
Bioorg. Med. Chem. Lett.

>  <bao_endpoint>  (213) 
BAO_0000190

>  <potential_duplicate>  (213) 
False

>  <uo_units>  (213) 
UO_0000065

>  <canonical_smiles>  (213) 
CC1(C)O[C@H]2[C@@H]3OS(=O)(=O)O[C@@H]3CO[C@@]2(COS(=O)(=O)N)O1

>  <parent_molecule_chembl_id>  (213) 
CHEMBL417656

>  <assay_type>  (213) 
B

>  <src_id>  (213) 
1

>  <ligand_efficiency>  (213) 
{u'le': u'0.46', u'bei': u'20.6', u'sei': u'4.47', u'lle': u'9.92'}

>  <standard_flag>  (213) 
True

>  <molecule_chembl_id>  (213) 
CHEMBL417656

>  <target_organism>  (213) 
Homo sapiens

>  <standard_units>  (213) 
nM

>  <record_id>  (213) 
334873

>  <document_chembl_id>  (213) 
CHEMBL1136620

>  <bao_format>  (213) 
BAO_0000357

>  <data_validity_description>  (213) 
None

>  <activity_id>  (213) 
787058

>  <standard_type>  (213) 
IC50

>  <target_chembl_id>  (213) 
CHEMBL205

>  <data_validity_comment>  (213) 
None

>  <published_value>  (213) 
36

>  <document_year>  (213) 
2003

>  <target_pref_name>  (213) 
Carbonic anhydrase II

>  <assay_chembl_id>  (213) 
CHEMBL657915

>  <standard_relation>  (213) 
=

>  <assay_description>  (213) 
Compound was tested for inhibition of human carbonic anhydrase (hCA II)

>  <published_relation>  (213) 
=

>  <standard_value>  (213) 
36

>  <qudt_units>  (213) 
http://www.openphacts.org/units/Nanomolar

>  <target_tax_id>  (213) 
9606

>  <bao_label>  (213) 
single protein format

>  <published_units>  (213) 
nM

>  <pchembl_value>  (213) 
7.44

>  <published_type>  (213) 
IC50

>  <activity_comment>  (213) 
None

$$$$

     RDKit          

 23 24  0  0  0  0  0  0  0  0999 V2000
    0.0000    0.0000    0.0000 C   0  0  0  0  0  0  0  0  0  0  0  0
    0.0000    0.0000    0.0000 C   0  0  0  0  0  0  0  0  0  0  0  0
    0.0000    0.0000    0.0000 N   0  0  0  0  0  0  0  0  0  0  0  0
    0.0000    0.0000    0.0000 C   0  0  0  0  0  0  0  0  0  0  0  0
    0.0000    0.0000    0.0000 C   0  0  0  0  0  0  0  0  0  0  0  0
    0.0000    0.0000    0.0000 C   0  0  0  0  0  0  0  0  0  0  0  0
    0.0000    0.0000    0.0000 C   0  0  0  0  0  0  0  0  0  0  0  0
    0.0000    0.0000    0.0000 C   0  0  0  0  0  0  0  0  0  0  0  0
    0.0000    0.0000    0.0000 N   0  0  0  0  0  0  0  0  0  0  0  0
    0.0000    0.0000    0.0000 C   0  0  0  0  0  0  0  0  0  0  0  0
    0.0000    0.0000    0.0000 O   0  0  0  0  0  0  0  0  0  0  0  0
    0.0000    0.0000    0.0000 C   0  0  0  0  0  0  0  0  0  0  0  0
    0.0000    0.0000    0.0000 C   0  0  0  0  0  0  0  0  0  0  0  0
    0.0000    0.0000    0.0000 C   0  0  0  0  0  0  0  0  0  0  0  0
    0.0000    0.0000    0.0000 C   0  0  0  0  0  0  0  0  0  0  0  0
    0.0000    0.0000    0.0000 C   0  0  0  0  0  0  0  0  0  0  0  0
    0.0000    0.0000    0.0000 C   0  0  0  0  0  0  0  0  0  0  0  0
    0.0000    0.0000    0.0000 O   0  0  0  0  0  0  0  0  0  0  0  0
    0.0000    0.0000    0.0000 C   0  0  0  0  0  0  0  0  0  0  0  0
    0.0000    0.0000    0.0000 S   0  0  0  0  0  0  0  0  0  0  0  0
    0.0000    0.0000    0.0000 O   0  0  0  0  0  0  0  0  0  0  0  0
    0.0000    0.0000    0.0000 O   0  0  0  0  0  0  0  0  0  0  0  0
    0.0000    0.0000    0.0000 N   0  0  0  0  0  0  0  0  0  0  0  0
  1  2  1  0
  2  3  1  0
  3  4  1  0
  4  5  1  0
  5  6  1  0
  6  7  1  0
  7  8  1  0
  8  9  1  0
  9 10  1  0
 10 11  2  0
 10 12  1  0
 12 13  2  0
 13 14  1  0
 14 15  2  0
 15 16  1  0
 16 17  2  0
 17 18  1  0
 18 19  1  0
 14 20  1  0
 20 21  2  0
 20 22  2  0
 20 23  1  0
  7  3  1  0
 17 12  1  0
M  END
>  <pIC50>  (214) 
7.4

>  <ChEMBL_ID>  (214) 
CHEMBL26

>  <document_journal>  (214) 
Bioorg. Med. Chem. Lett.

>  <bao_endpoint>  (214) 
BAO_0000190

>  <potential_duplicate>  (214) 
False

>  <uo_units>  (214) 
UO_0000065

>  <canonical_smiles>  (214) 
CCN1CCCC1CNC(=O)c2cc(ccc2OC)S(=O)(=O)N

>  <parent_molecule_chembl_id>  (214) 
CHEMBL26

>  <assay_type>  (214) 
F

>  <src_id>  (214) 
1

>  <ligand_efficiency>  (214) 
None

>  <standard_flag>  (214) 
True

>  <molecule_chembl_id>  (214) 
CHEMBL26

>  <target_organism>  (214) 
Homo sapiens

>  <standard_units>  (214) 
nM

>  <record_id>  (214) 
217322

>  <document_chembl_id>  (214) 
CHEMBL1146823

>  <bao_format>  (214) 
BAO_0000019

>  <data_validity_description>  (214) 
None

>  <activity_id>  (214) 
871514

>  <standard_type>  (214) 
IC50

>  <target_chembl_id>  (214) 
CHEMBL205

>  <data_validity_comment>  (214) 
None

>  <published_value>  (214) 
40

>  <document_year>  (214) 
2004

>  <target_pref_name>  (214) 
Carbonic anhydrase II

>  <assay_chembl_id>  (214) 
CHEMBL657918

>  <standard_relation>  (214) 
=

>  <assay_description>  (214) 
Inhibitory activity of compound against human carbonic anhydrase II

>  <published_relation>  (214) 
=

>  <standard_value>  (214) 
40

>  <qudt_units>  (214) 
http://www.openphacts.org/units/Nanomolar

>  <target_tax_id>  (214) 
9606

>  <bao_label>  (214) 
assay format

>  <published_units>  (214) 
nM

>  <pchembl_value>  (214) 
7.4

>  <published_type>  (214) 
IC50

>  <activity_comment>  (214) 
None

$$$$

     RDKit          

 24 26  0  0  0  0  0  0  0  0999 V2000
    0.0000    0.0000    0.0000 N   0  0  0  0  0  0  0  0  0  0  0  0
    0.0000    0.0000    0.0000 S   0  0  0  0  0  0  0  0  0  0  0  0
    0.0000    0.0000    0.0000 O   0  0  0  0  0  0  0  0  0  0  0  0
    0.0000    0.0000    0.0000 O   0  0  0  0  0  0  0  0  0  0  0  0
    0.0000    0.0000    0.0000 C   0  0  0  0  0  0  0  0  0  0  0  0
    0.0000    0.0000    0.0000 C   0  0  0  0  0  0  0  0  0  0  0  0
    0.0000    0.0000    0.0000 C   0  0  0  0  0  0  0  0  0  0  0  0
    0.0000    0.0000    0.0000 C   0  0  0  0  0  0  0  0  0  0  0  0
    0.0000    0.0000    0.0000 C   0  0  0  0  0  0  0  0  0  0  0  0
    0.0000    0.0000    0.0000 C   0  0  0  0  0  0  0  0  0  0  0  0
    0.0000    0.0000    0.0000 S   0  0  0  0  0  0  0  0  0  0  0  0
    0.0000    0.0000    0.0000 O   0  0  0  0  0  0  0  0  0  0  0  0
    0.0000    0.0000    0.0000 O   0  0  0  0  0  0  0  0  0  0  0  0
    0.0000    0.0000    0.0000 N   0  0  0  0  0  0  0  0  0  0  0  0
    0.0000    0.0000    0.0000 C   0  0  0  0  0  0  0  0  0  0  0  0
    0.0000    0.0000    0.0000 C   0  0  0  0  0  0  0  0  0  0  0  0
    0.0000    0.0000    0.0000 C   0  0  0  0  0  0  0  0  0  0  0  0
    0.0000    0.0000    0.0000 C   0  0  0  0  0  0  0  0  0  0  0  0
    0.0000    0.0000    0.0000 C   0  0  0  0  0  0  0  0  0  0  0  0
    0.0000    0.0000    0.0000 C   0  0  0  0  0  0  0  0  0  0  0  0
    0.0000    0.0000    0.0000 Cl  0  0  0  0  0  0  0  0  0  0  0  0
    0.0000    0.0000    0.0000 C   0  0  0  0  0  0  0  0  0  0  0  0
    0.0000    0.0000    0.0000 N   0  0  0  0  0  0  0  0  0  0  0  0
    0.0000    0.0000    0.0000 C   0  0  0  0  0  0  0  0  0  0  0  0
  1  2  1  0
  2  3  2  0
  2  4  2  0
  2  5  1  0
  5  6  2  0
  6  7  1  0
  7  8  2  0
  8  9  1  0
  9 10  2  0
  8 11  1  0
 11 12  2  0
 11 13  2  0
 11 14  1  0
 14 15  1  0
 15 16  2  0
 16 17  1  0
 17 18  2  0
 18 19  1  0
 19 20  1  0
 20 21  1  0
 20 22  2  0
 22 23  1  0
 23 24  1  0
 10  5  1  0
 24 15  1  0
 24 19  2  0
M  END
>  <pIC50>  (215) 
7.82

>  <ChEMBL_ID>  (215) 
CHEMBL77517

>  <document_journal>  (215) 
Bioorg. Med. Chem. Lett.

>  <bao_endpoint>  (215) 
BAO_0000190

>  <potential_duplicate>  (215) 
False

>  <uo_units>  (215) 
UO_0000065

>  <canonical_smiles>  (215) 
NS(=O)(=O)c1ccc(cc1)S(=O)(=O)Nc2cccc3c(Cl)c[nH]c23

>  <parent_molecule_chembl_id>  (215) 
CHEMBL77517

>  <assay_type>  (215) 
F

>  <src_id>  (215) 
1

>  <ligand_efficiency>  (215) 
None

>  <standard_flag>  (215) 
True

>  <molecule_chembl_id>  (215) 
CHEMBL77517

>  <target_organism>  (215) 
Homo sapiens

>  <standard_units>  (215) 
nM

>  <record_id>  (215) 
217318

>  <document_chembl_id>  (215) 
CHEMBL1146823

>  <bao_format>  (215) 
BAO_0000019

>  <data_validity_description>  (215) 
None

>  <activity_id>  (215) 
886354

>  <standard_type>  (215) 
IC50

>  <target_chembl_id>  (215) 
CHEMBL205

>  <data_validity_comment>  (215) 
None

>  <published_value>  (215) 
15

>  <document_year>  (215) 
2004

>  <target_pref_name>  (215) 
Carbonic anhydrase II

>  <assay_chembl_id>  (215) 
CHEMBL657918

>  <standard_relation>  (215) 
=

>  <assay_description>  (215) 
Inhibitory activity of compound against human carbonic anhydrase II

>  <published_relation>  (215) 
=

>  <standard_value>  (215) 
15

>  <qudt_units>  (215) 
http://www.openphacts.org/units/Nanomolar

>  <target_tax_id>  (215) 
9606

>  <bao_label>  (215) 
assay format

>  <published_units>  (215) 
nM

>  <pchembl_value>  (215) 
7.82

>  <published_type>  (215) 
IC50

>  <activity_comment>  (215) 
None

$$$$

     RDKit          

 22 24  0  0  0  0  0  0  0  0999 V2000
    0.0000    0.0000    0.0000 C   0  0  0  0  0  0  0  0  0  0  0  0
    0.0000    0.0000    0.0000 C   0  0  0  0  0  0  0  0  0  0  0  0
    0.0000    0.0000    0.0000 C   0  0  0  0  0  0  0  0  0  0  0  0
    0.0000    0.0000    0.0000 O   0  0  0  0  0  0  0  0  0  0  0  0
    0.0000    0.0000    0.0000 C   0  0  0  0  0  0  0  0  0  0  0  0
    0.0000    0.0000    0.0000 C   0  0  0  0  0  0  0  0  0  0  0  0
    0.0000    0.0000    0.0000 O   0  0  0  0  0  0  0  0  0  0  0  0
    0.0000    0.0000    0.0000 C   0  0  0  0  0  0  0  0  0  0  0  0
    0.0000    0.0000    0.0000 C   0  0  0  0  0  0  0  0  0  0  0  0
    0.0000    0.0000    0.0000 O   0  0  0  0  0  0  0  0  0  0  0  0
    0.0000    0.0000    0.0000 S   0  0  0  0  0  0  0  0  0  0  0  0
    0.0000    0.0000    0.0000 O   0  0  0  0  0  0  0  0  0  0  0  0
    0.0000    0.0000    0.0000 O   0  0  0  0  0  0  0  0  0  0  0  0
    0.0000    0.0000    0.0000 N   0  0  0  0  0  0  0  0  0  0  0  0
    0.0000    0.0000    0.0000 O   0  0  0  0  0  0  0  0  0  0  0  0
    0.0000    0.0000    0.0000 C   0  0  0  0  0  0  0  0  0  0  0  0
    0.0000    0.0000    0.0000 C   0  0  0  0  0  0  0  0  0  0  0  0
    0.0000    0.0000    0.0000 C   0  0  0  0  0  0  0  0  0  0  0  0
    0.0000    0.0000    0.0000 O   0  0  0  0  0  0  0  0  0  0  0  0
    0.0000    0.0000    0.0000 C   0  0  0  0  0  0  0  0  0  0  0  0
    0.0000    0.0000    0.0000 C   0  0  0  0  0  0  0  0  0  0  0  0
    0.0000    0.0000    0.0000 O   0  0  0  0  0  0  0  0  0  0  0  0
  1  2  1  0
  2  3  1  0
  2  4  1  0
  4  5  1  0
  5  6  1  0
  6  7  1  0
  7  8  1  0
  8  9  1  0
  9 10  1  0
 10 11  1  0
 11 12  2  0
 11 13  2  0
 11 14  1  0
  8 15  1  0
 15 16  1  0
 16 17  1  0
 16 18  1  0
 16 19  1  0
 19 20  1  0
 20 21  1  0
 21 22  1  0
 22  2  1  0
 21  5  1  0
 20  8  1  0
M  END
>  <pIC50>  (216) 
6.76

>  <ChEMBL_ID>  (216) 
CHEMBL220492

>  <document_journal>  (216) 
Bioorg. Med. Chem. Lett.

>  <bao_endpoint>  (216) 
BAO_0000190

>  <potential_duplicate>  (216) 
False

>  <uo_units>  (216) 
UO_0000065

>  <canonical_smiles>  (216) 
CC1(C)O[C@@H]2CO[C@@]3(COS(=O)(=O)N)OC(C)(C)O[C@H]3[C@@H]2O1

>  <parent_molecule_chembl_id>  (216) 
CHEMBL220492

>  <assay_type>  (216) 
F

>  <src_id>  (216) 
1

>  <ligand_efficiency>  (216) 
None

>  <standard_flag>  (216) 
True

>  <molecule_chembl_id>  (216) 
CHEMBL220492

>  <target_organism>  (216) 
Homo sapiens

>  <standard_units>  (216) 
nM

>  <record_id>  (216) 
217317

>  <document_chembl_id>  (216) 
CHEMBL1146823

>  <bao_format>  (216) 
BAO_0000019

>  <data_validity_description>  (216) 
None

>  <activity_id>  (216) 
892331

>  <standard_type>  (216) 
IC50

>  <target_chembl_id>  (216) 
CHEMBL205

>  <data_validity_comment>  (216) 
None

>  <published_value>  (216) 
5

>  <document_year>  (216) 
2004

>  <target_pref_name>  (216) 
Carbonic anhydrase II

>  <assay_chembl_id>  (216) 
CHEMBL657918

>  <standard_relation>  (216) 
=

>  <assay_description>  (216) 
Inhibitory activity of compound against human carbonic anhydrase II

>  <published_relation>  (216) 
=

>  <standard_value>  (216) 
5

>  <qudt_units>  (216) 
http://www.openphacts.org/units/Nanomolar

>  <target_tax_id>  (216) 
9606

>  <bao_label>  (216) 
assay format

>  <published_units>  (216) 
nM

>  <pchembl_value>  (216) 
8.3

>  <published_type>  (216) 
IC50

>  <activity_comment>  (216) 
None

$$$$

     RDKit          

 29 32  0  0  0  0  0  0  0  0999 V2000
    0.0000    0.0000    0.0000 N   0  0  0  0  0  0  0  0  0  0  0  0
    0.0000    0.0000    0.0000 S   0  0  0  0  0  0  0  0  0  0  0  0
    0.0000    0.0000    0.0000 O   0  0  0  0  0  0  0  0  0  0  0  0
    0.0000    0.0000    0.0000 O   0  0  0  0  0  0  0  0  0  0  0  0
    0.0000    0.0000    0.0000 C   0  0  0  0  0  0  0  0  0  0  0  0
    0.0000    0.0000    0.0000 C   0  0  0  0  0  0  0  0  0  0  0  0
    0.0000    0.0000    0.0000 C   0  0  0  0  0  0  0  0  0  0  0  0
    0.0000    0.0000    0.0000 C   0  0  0  0  0  0  0  0  0  0  0  0
    0.0000    0.0000    0.0000 C   0  0  0  0  0  0  0  0  0  0  0  0
    0.0000    0.0000    0.0000 C   0  0  0  0  0  0  0  0  0  0  0  0
    0.0000    0.0000    0.0000 N   0  0  0  0  0  0  0  0  0  0  0  0
    0.0000    0.0000    0.0000 C   0  0  0  0  0  0  0  0  0  0  0  0
    0.0000    0.0000    0.0000 C   0  0  0  0  0  0  0  0  0  0  0  0
    0.0000    0.0000    0.0000 O   0  0  0  0  0  0  0  0  0  0  0  0
    0.0000    0.0000    0.0000 C   0  0  0  0  0  0  0  0  0  0  0  0
    0.0000    0.0000    0.0000 C   0  0  0  0  0  0  0  0  0  0  0  0
    0.0000    0.0000    0.0000 N   0  0  0  0  0  0  0  0  0  0  0  0
    0.0000    0.0000    0.0000 C   0  0  0  0  0  0  0  0  0  0  0  0
    0.0000    0.0000    0.0000 C   0  0  0  0  0  0  0  0  0  0  0  0
    0.0000    0.0000    0.0000 C   0  0  0  0  0  0  0  0  0  0  0  0
    0.0000    0.0000    0.0000 C   0  0  0  0  0  0  0  0  0  0  0  0
    0.0000    0.0000    0.0000 C   0  0  0  0  0  0  0  0  0  0  0  0
    0.0000    0.0000    0.0000 O   0  0  0  0  0  0  0  0  0  0  0  0
    0.0000    0.0000    0.0000 C   0  0  0  0  0  0  0  0  0  0  0  0
    0.0000    0.0000    0.0000 S   0  0  0  0  0  0  0  0  0  0  0  0
    0.0000    0.0000    0.0000 O   0  0  0  0  0  0  0  0  0  0  0  0
    0.0000    0.0000    0.0000 O   0  0  0  0  0  0  0  0  0  0  0  0
    0.0000    0.0000    0.0000 C   0  0  0  0  0  0  0  0  0  0  0  0
    0.0000    0.0000    0.0000 S   0  0  0  0  0  0  0  0  0  0  0  0
  1  2  1  0
  2  3  2  0
  2  4  2  0
  2  5  1  0
  5  6  2  0
  6  7  1  0
  7  8  1  0
  8  9  2  0
  9 10  1  0
 10 11  1  0
 11 12  1  0
 12 13  1  0
 13 14  1  0
 14 15  1  0
 15 16  1  0
  9 17  1  0
 17 18  1  0
 18 19  2  0
 19 20  1  0
 20 21  2  0
 21 22  1  0
 22 23  1  0
 22 24  2  0
 17 25  1  0
 25 26  2  0
 25 27  2  0
 25 28  1  0
 28 29  1  0
 29  5  1  0
 28  7  2  0
 16 11  1  0
 24 18  1  0
M  END
>  <pIC50>  (217) 
8.94

>  <ChEMBL_ID>  (217) 
CHEMBL353861

>  <document_journal>  (217) 
J. Med. Chem.

>  <bao_endpoint>  (217) 
BAO_0000190

>  <potential_duplicate>  (217) 
False

>  <uo_units>  (217) 
UO_0000065

>  <canonical_smiles>  (217) 
NS(=O)(=O)c1cc2C=C(CN3CCOCC3)N(c4cccc(O)c4)S(=O)(=O)c2s1

>  <parent_molecule_chembl_id>  (217) 
CHEMBL353861

>  <assay_type>  (217) 
B

>  <src_id>  (217) 
1

>  <ligand_efficiency>  (217) 
{u'le': u'0.42', u'bei': u'19.54', u'sei': u'5.1', u'lle': u'8.36'}

>  <standard_flag>  (217) 
True

>  <molecule_chembl_id>  (217) 
CHEMBL353861

>  <target_organism>  (217) 
Homo sapiens

>  <standard_units>  (217) 
nM

>  <record_id>  (217) 
337686

>  <document_chembl_id>  (217) 
CHEMBL1135720

>  <bao_format>  (217) 
BAO_0000357

>  <data_validity_description>  (217) 
None

>  <activity_id>  (217) 
949931

>  <standard_type>  (217) 
IC50

>  <target_chembl_id>  (217) 
CHEMBL205

>  <data_validity_comment>  (217) 
None

>  <published_value>  (217) 
1.15

>  <document_year>  (217) 
2002

>  <target_pref_name>  (217) 
Carbonic anhydrase II

>  <assay_chembl_id>  (217) 
CHEMBL657916

>  <standard_relation>  (217) 
=

>  <assay_description>  (217) 
Concentration which produces 50% inhibition of human Carbonic anhydrase II

>  <published_relation>  (217) 
=

>  <standard_value>  (217) 
1.15

>  <qudt_units>  (217) 
http://www.openphacts.org/units/Nanomolar

>  <target_tax_id>  (217) 
9606

>  <bao_label>  (217) 
single protein format

>  <published_units>  (217) 
nM

>  <pchembl_value>  (217) 
8.94

>  <published_type>  (217) 
IC50

>  <activity_comment>  (217) 
None

$$$$

     RDKit          

 23 24  0  0  0  0  0  0  0  0999 V2000
    0.0000    0.0000    0.0000 C   0  0  0  0  0  0  0  0  0  0  0  0
    0.0000    0.0000    0.0000 C   0  0  0  0  0  0  0  0  0  0  0  0
    0.0000    0.0000    0.0000 N   0  0  0  0  0  0  0  0  0  0  0  0
    0.0000    0.0000    0.0000 C   0  0  0  0  0  0  0  0  0  0  0  0
    0.0000    0.0000    0.0000 C   0  0  0  0  0  0  0  0  0  0  0  0
    0.0000    0.0000    0.0000 N   0  0  0  0  0  0  0  0  0  0  0  0
    0.0000    0.0000    0.0000 C   0  0  0  0  0  0  0  0  0  0  0  0
    0.0000    0.0000    0.0000 C   0  0  0  0  0  0  0  0  0  0  0  0
    0.0000    0.0000    0.0000 C   0  0  0  0  0  0  0  0  0  0  0  0
    0.0000    0.0000    0.0000 O   0  0  0  0  0  0  0  0  0  0  0  0
    0.0000    0.0000    0.0000 C   0  0  0  0  0  0  0  0  0  0  0  0
    0.0000    0.0000    0.0000 S   0  0  0  0  0  0  0  0  0  0  0  0
    0.0000    0.0000    0.0000 O   0  0  0  0  0  0  0  0  0  0  0  0
    0.0000    0.0000    0.0000 O   0  0  0  0  0  0  0  0  0  0  0  0
    0.0000    0.0000    0.0000 C   0  0  0  0  0  0  0  0  0  0  0  0
    0.0000    0.0000    0.0000 S   0  0  0  0  0  0  0  0  0  0  0  0
    0.0000    0.0000    0.0000 C   0  0  0  0  0  0  0  0  0  0  0  0
    0.0000    0.0000    0.0000 C   0  0  0  0  0  0  0  0  0  0  0  0
    0.0000    0.0000    0.0000 C   0  0  0  0  0  0  0  0  0  0  0  0
    0.0000    0.0000    0.0000 S   0  0  0  0  0  0  0  0  0  0  0  0
    0.0000    0.0000    0.0000 O   0  0  0  0  0  0  0  0  0  0  0  0
    0.0000    0.0000    0.0000 O   0  0  0  0  0  0  0  0  0  0  0  0
    0.0000    0.0000    0.0000 N   0  0  0  0  0  0  0  0  0  0  0  0
  1  2  1  0
  2  3  1  0
  3  4  1  0
  4  5  1  0
  5  6  1  0
  6  7  1  0
  7  8  1  0
  8  9  1  0
  9 10  1  0
 10 11  1  0
  6 12  1  0
 12 13  2  0
 12 14  2  0
 12 15  1  0
 15 16  1  0
 16 17  1  0
 17 18  2  0
 18 19  1  0
 17 20  1  0
 20 21  2  0
 20 22  2  0
 20 23  1  0
 19  4  1  0
 19 15  2  0
M  END
>  <pIC50>  (218) 
7.925

>  <ChEMBL_ID>  (218) 
CHEMBL220491

>  <document_journal>  (218) 
J. Med. Chem.

>  <bao_endpoint>  (218) 
BAO_0000190

>  <potential_duplicate>  (218) 
False

>  <uo_units>  (218) 
UO_0000065

>  <canonical_smiles>  (218) 
CCN[C@H]1CN(CCCOC)S(=O)(=O)c2sc(cc12)S(=O)(=O)N

>  <parent_molecule_chembl_id>  (218) 
CHEMBL220491

>  <assay_type>  (218) 
B

>  <src_id>  (218) 
1

>  <ligand_efficiency>  (218) 
{u'le': u'0.5', u'bei': u'22.15', u'sei': u'5.19', u'lle': u'9.26'}

>  <standard_flag>  (218) 
True

>  <molecule_chembl_id>  (218) 
CHEMBL220491

>  <target_organism>  (218) 
Homo sapiens

>  <standard_units>  (218) 
nM

>  <record_id>  (218) 
337687

>  <document_chembl_id>  (218) 
CHEMBL1135720

>  <bao_format>  (218) 
BAO_0000357

>  <data_validity_description>  (218) 
None

>  <activity_id>  (218) 
952640

>  <standard_type>  (218) 
IC50

>  <target_chembl_id>  (218) 
CHEMBL205

>  <data_validity_comment>  (218) 
None

>  <published_value>  (218) 
3.2

>  <document_year>  (218) 
2002

>  <target_pref_name>  (218) 
Carbonic anhydrase II

>  <assay_chembl_id>  (218) 
CHEMBL657916

>  <standard_relation>  (218) 
=

>  <assay_description>  (218) 
Concentration which produces 50% inhibition of human Carbonic anhydrase II

>  <published_relation>  (218) 
=

>  <standard_value>  (218) 
3.2

>  <qudt_units>  (218) 
http://www.openphacts.org/units/Nanomolar

>  <target_tax_id>  (218) 
9606

>  <bao_label>  (218) 
single protein format

>  <published_units>  (218) 
nM

>  <pchembl_value>  (218) 
8.5

>  <published_type>  (218) 
IC50

>  <activity_comment>  (218) 
None

$$$$

     RDKit          

 21 22  0  0  0  0  0  0  0  0999 V2000
    0.0000    0.0000    0.0000 C   0  0  0  0  0  0  0  0  0  0  0  0
    0.0000    0.0000    0.0000 O   0  0  0  0  0  0  0  0  0  0  0  0
    0.0000    0.0000    0.0000 C   0  0  0  0  0  0  0  0  0  0  0  0
    0.0000    0.0000    0.0000 C   0  0  0  0  0  0  0  0  0  0  0  0
    0.0000    0.0000    0.0000 C   0  0  0  0  0  0  0  0  0  0  0  0
    0.0000    0.0000    0.0000 N   0  0  0  0  0  0  0  0  0  0  0  0
    0.0000    0.0000    0.0000 C   0  0  0  0  0  0  0  0  0  0  0  0
    0.0000    0.0000    0.0000 C   0  0  0  0  0  0  0  0  0  0  0  0
    0.0000    0.0000    0.0000 N   0  0  0  0  0  0  0  0  0  0  0  0
    0.0000    0.0000    0.0000 C   0  0  0  0  0  0  0  0  0  0  0  0
    0.0000    0.0000    0.0000 C   0  0  0  0  0  0  0  0  0  0  0  0
    0.0000    0.0000    0.0000 C   0  0  0  0  0  0  0  0  0  0  0  0
    0.0000    0.0000    0.0000 S   0  0  0  0  0  0  0  0  0  0  0  0
    0.0000    0.0000    0.0000 C   0  0  0  0  0  0  0  0  0  0  0  0
    0.0000    0.0000    0.0000 S   0  0  0  0  0  0  0  0  0  0  0  0
    0.0000    0.0000    0.0000 O   0  0  0  0  0  0  0  0  0  0  0  0
    0.0000    0.0000    0.0000 O   0  0  0  0  0  0  0  0  0  0  0  0
    0.0000    0.0000    0.0000 S   0  0  0  0  0  0  0  0  0  0  0  0
    0.0000    0.0000    0.0000 O   0  0  0  0  0  0  0  0  0  0  0  0
    0.0000    0.0000    0.0000 O   0  0  0  0  0  0  0  0  0  0  0  0
    0.0000    0.0000    0.0000 N   0  0  0  0  0  0  0  0  0  0  0  0
  1  2  1  0
  2  3  1  0
  3  4  1  0
  4  5  1  0
  5  6  1  0
  6  7  1  0
  7  8  1  0
  8  9  1  0
  8 10  1  0
 10 11  1  0
 11 12  2  0
 12 13  1  0
 13 14  1  0
 14 15  1  0
 15 16  2  0
 15 17  2  0
 12 18  1  0
 18 19  2  0
 18 20  2  0
 18 21  1  0
 15  6  1  0
 14 10  2  0
M  END
>  <pIC50>  (219) 
8.89

>  <ChEMBL_ID>  (219) 
CHEMBL1340

>  <document_journal>  (219) 
J. Med. Chem.

>  <bao_endpoint>  (219) 
BAO_0000190

>  <potential_duplicate>  (219) 
False

>  <uo_units>  (219) 
UO_0000065

>  <canonical_smiles>  (219) 
COCCCN1C[C@H](N)c2cc(sc2S1(=O)=O)S(=O)(=O)N

>  <parent_molecule_chembl_id>  (219) 
CHEMBL1340

>  <assay_type>  (219) 
B

>  <src_id>  (219) 
1

>  <ligand_efficiency>  (219) 
{u'le': u'0.58', u'bei': u'25.02', u'sei': u'5', u'lle': u'10.44'}

>  <standard_flag>  (219) 
True

>  <molecule_chembl_id>  (219) 
CHEMBL1340

>  <target_organism>  (219) 
Homo sapiens

>  <standard_units>  (219) 
nM

>  <record_id>  (219) 
337688

>  <document_chembl_id>  (219) 
CHEMBL1135720

>  <bao_format>  (219) 
BAO_0000357

>  <data_validity_description>  (219) 
None

>  <activity_id>  (219) 
957856

>  <standard_type>  (219) 
IC50

>  <target_chembl_id>  (219) 
CHEMBL205

>  <data_validity_comment>  (219) 
None

>  <published_value>  (219) 
1.28

>  <document_year>  (219) 
2002

>  <target_pref_name>  (219) 
Carbonic anhydrase II

>  <assay_chembl_id>  (219) 
CHEMBL657916

>  <standard_relation>  (219) 
=

>  <assay_description>  (219) 
Concentration which produces 50% inhibition of human Carbonic anhydrase II

>  <published_relation>  (219) 
=

>  <standard_value>  (219) 
1.28

>  <qudt_units>  (219) 
http://www.openphacts.org/units/Nanomolar

>  <target_tax_id>  (219) 
9606

>  <bao_label>  (219) 
single protein format

>  <published_units>  (219) 
nM

>  <pchembl_value>  (219) 
8.89

>  <published_type>  (219) 
IC50

>  <activity_comment>  (219) 
None

$$$$

     RDKit          

 30 33  0  0  0  0  0  0  0  0999 V2000
    0.0000    0.0000    0.0000 C   0  0  0  0  0  0  0  0  0  0  0  0
    0.0000    0.0000    0.0000 O   0  0  0  0  0  0  0  0  0  0  0  0
    0.0000    0.0000    0.0000 C   0  0  0  0  0  0  0  0  0  0  0  0
    0.0000    0.0000    0.0000 C   0  0  0  0  0  0  0  0  0  0  0  0
    0.0000    0.0000    0.0000 C   0  0  0  0  0  0  0  0  0  0  0  0
    0.0000    0.0000    0.0000 C   0  0  0  0  0  0  0  0  0  0  0  0
    0.0000    0.0000    0.0000 C   0  0  0  0  0  0  0  0  0  0  0  0
    0.0000    0.0000    0.0000 C   0  0  0  0  0  0  0  0  0  0  0  0
    0.0000    0.0000    0.0000 N   0  0  0  0  0  0  0  0  0  0  0  0
    0.0000    0.0000    0.0000 C   0  0  0  0  0  0  0  0  0  0  0  0
    0.0000    0.0000    0.0000 C   0  0  0  0  0  0  0  0  0  0  0  0
    0.0000    0.0000    0.0000 C   0  0  0  0  0  0  0  0  0  0  0  0
    0.0000    0.0000    0.0000 C   0  0  0  0  0  0  0  0  0  0  0  0
    0.0000    0.0000    0.0000 C   0  0  0  0  0  0  0  0  0  0  0  0
    0.0000    0.0000    0.0000 S   0  0  0  0  0  0  0  0  0  0  0  0
    0.0000    0.0000    0.0000 C   0  0  0  0  0  0  0  0  0  0  0  0
    0.0000    0.0000    0.0000 S   0  0  0  0  0  0  0  0  0  0  0  0
    0.0000    0.0000    0.0000 O   0  0  0  0  0  0  0  0  0  0  0  0
    0.0000    0.0000    0.0000 O   0  0  0  0  0  0  0  0  0  0  0  0
    0.0000    0.0000    0.0000 S   0  0  0  0  0  0  0  0  0  0  0  0
    0.0000    0.0000    0.0000 O   0  0  0  0  0  0  0  0  0  0  0  0
    0.0000    0.0000    0.0000 O   0  0  0  0  0  0  0  0  0  0  0  0
    0.0000    0.0000    0.0000 N   0  0  0  0  0  0  0  0  0  0  0  0
    0.0000    0.0000    0.0000 C   0  0  0  0  0  0  0  0  0  0  0  0
    0.0000    0.0000    0.0000 N   0  0  0  0  0  0  0  0  0  0  0  0
    0.0000    0.0000    0.0000 C   0  0  0  0  0  0  0  0  0  0  0  0
    0.0000    0.0000    0.0000 C   0  0  0  0  0  0  0  0  0  0  0  0
    0.0000    0.0000    0.0000 O   0  0  0  0  0  0  0  0  0  0  0  0
    0.0000    0.0000    0.0000 C   0  0  0  0  0  0  0  0  0  0  0  0
    0.0000    0.0000    0.0000 C   0  0  0  0  0  0  0  0  0  0  0  0
  1  2  1  0
  2  3  1  0
  3  4  2  0
  4  5  1  0
  5  6  2  0
  6  7  1  0
  7  8  2  0
  7  9  1  0
  9 10  1  0
 10 11  2  0
 11 12  1  0
 12 13  1  0
 13 14  2  0
 14 15  1  0
 15 16  1  0
 16 17  1  0
 17 18  2  0
 17 19  2  0
 14 20  1  0
 20 21  2  0
 20 22  2  0
 20 23  1  0
 10 24  1  0
 24 25  1  0
 25 26  1  0
 26 27  1  0
 27 28  1  0
 28 29  1  0
 29 30  1  0
  8  3  1  0
 17  9  1  0
 16 12  2  0
 30 25  1  0
M  END
>  <pIC50>  (220) 
8.9

>  <ChEMBL_ID>  (220) 
CHEMBL433921

>  <document_journal>  (220) 
J. Med. Chem.

>  <bao_endpoint>  (220) 
BAO_0000190

>  <potential_duplicate>  (220) 
False

>  <uo_units>  (220) 
UO_0000065

>  <canonical_smiles>  (220) 
COc1cccc(c1)N2C(=Cc3cc(sc3S2(=O)=O)S(=O)(=O)N)CN4CCOCC4

>  <parent_molecule_chembl_id>  (220) 
CHEMBL433921

>  <assay_type>  (220) 
B

>  <src_id>  (220) 
1

>  <ligand_efficiency>  (220) 
{u'le': u'0.4', u'bei': u'18.87', u'sei': u'5.42', u'lle': u'8.1'}

>  <standard_flag>  (220) 
True

>  <molecule_chembl_id>  (220) 
CHEMBL433921

>  <target_organism>  (220) 
Homo sapiens

>  <standard_units>  (220) 
nM

>  <record_id>  (220) 
337689

>  <document_chembl_id>  (220) 
CHEMBL1135720

>  <bao_format>  (220) 
BAO_0000357

>  <data_validity_description>  (220) 
None

>  <activity_id>  (220) 
966739

>  <standard_type>  (220) 
IC50

>  <target_chembl_id>  (220) 
CHEMBL205

>  <data_validity_comment>  (220) 
None

>  <published_value>  (220) 
1.27

>  <document_year>  (220) 
2002

>  <target_pref_name>  (220) 
Carbonic anhydrase II

>  <assay_chembl_id>  (220) 
CHEMBL657916

>  <standard_relation>  (220) 
=

>  <assay_description>  (220) 
Concentration which produces 50% inhibition of human Carbonic anhydrase II

>  <published_relation>  (220) 
=

>  <standard_value>  (220) 
1.27

>  <qudt_units>  (220) 
http://www.openphacts.org/units/Nanomolar

>  <target_tax_id>  (220) 
9606

>  <bao_label>  (220) 
single protein format

>  <published_units>  (220) 
nM

>  <pchembl_value>  (220) 
8.9

>  <published_type>  (220) 
IC50

>  <activity_comment>  (220) 
None

$$$$

     RDKit          

 18 19  0  0  0  0  0  0  0  0999 V2000
    0.0000    0.0000    0.0000 N   0  0  0  0  0  0  0  0  0  0  0  0
    0.0000    0.0000    0.0000 S   0  0  0  0  0  0  0  0  0  0  0  0
    0.0000    0.0000    0.0000 O   0  0  0  0  0  0  0  0  0  0  0  0
    0.0000    0.0000    0.0000 O   0  0  0  0  0  0  0  0  0  0  0  0
    0.0000    0.0000    0.0000 C   0  0  0  0  0  0  0  0  0  0  0  0
    0.0000    0.0000    0.0000 C   0  0  0  0  0  0  0  0  0  0  0  0
    0.0000    0.0000    0.0000 C   0  0  0  0  0  0  0  0  0  0  0  0
    0.0000    0.0000    0.0000 C   0  0  0  0  0  0  0  0  0  0  0  0
    0.0000    0.0000    0.0000 C   0  0  0  0  0  0  0  0  0  0  0  0
    0.0000    0.0000    0.0000 C   0  0  0  0  0  0  0  0  0  0  0  0
    0.0000    0.0000    0.0000 O   0  0  0  0  0  0  0  0  0  0  0  0
    0.0000    0.0000    0.0000 P   0  0  0  0  0  0  0  0  0  0  0  0
    0.0000    0.0000    0.0000 O   0  0  0  0  0  0  0  0  0  0  0  0
    0.0000    0.0000    0.0000 O   0  0  0  0  0  0  0  0  0  0  0  0
    0.0000    0.0000    0.0000 O   0  0  0  0  0  0  0  0  0  0  0  0
    0.0000    0.0000    0.0000 C   0  0  0  0  0  0  0  0  0  0  0  0
    0.0000    0.0000    0.0000 C   0  0  0  0  0  0  0  0  0  0  0  0
    0.0000    0.0000    0.0000 S   0  0  0  0  0  0  0  0  0  0  0  0
  1  2  1  0
  2  3  2  0
  2  4  2  0
  2  5  1  0
  5  6  2  0
  6  7  1  0
  7  8  2  0
  8  9  1  0
  9 10  2  0
 10 11  1  0
 11 12  1  0
 12 13  2  0
 12 14  1  0
 12 15  1  0
 10 16  1  0
 16 17  2  0
 17 18  1  0
 18  5  1  0
 17  7  1  0
M  END
>  <pIC50>  (221) 
7.0

>  <ChEMBL_ID>  (221) 
CHEMBL82867

>  <document_journal>  (221) 
J. Med. Chem.

>  <bao_endpoint>  (221) 
BAO_0000190

>  <potential_duplicate>  (221) 
False

>  <uo_units>  (221) 
UO_0000065

>  <canonical_smiles>  (221) 
[Na+].[Na+].NS(=O)(=O)c1cc2ccc(OP(=O)([O-])[O-])cc2s1

>  <parent_molecule_chembl_id>  (221) 
CHEMBL1205316

>  <assay_type>  (221) 
B

>  <src_id>  (221) 
1

>  <ligand_efficiency>  (221) 
{u'le': u'0.53', u'bei': u'22.63', u'sei': u'4.04', u'lle': u'5.97'}

>  <standard_flag>  (221) 
True

>  <molecule_chembl_id>  (221) 
CHEMBL82867

>  <target_organism>  (221) 
Homo sapiens

>  <standard_units>  (221) 
nM

>  <record_id>  (221) 
154355

>  <document_chembl_id>  (221) 
CHEMBL1124376

>  <bao_format>  (221) 
BAO_0000019

>  <data_validity_description>  (221) 
None

>  <activity_id>  (221) 
1027984

>  <standard_type>  (221) 
IC50

>  <target_chembl_id>  (221) 
CHEMBL205

>  <data_validity_comment>  (221) 
None

>  <published_value>  (221) 
100

>  <document_year>  (221) 
1989

>  <target_pref_name>  (221) 
Carbonic anhydrase II

>  <assay_chembl_id>  (221) 
CHEMBL656570

>  <standard_relation>  (221) 
=

>  <assay_description>  (221) 
50% inhibition of human carbonic anhydrase II assayed by CO2 hydration catalyzed by human erythrocytes

>  <published_relation>  (221) 
=

>  <standard_value>  (221) 
100

>  <qudt_units>  (221) 
http://www.openphacts.org/units/Nanomolar

>  <target_tax_id>  (221) 
9606

>  <bao_label>  (221) 
assay format

>  <published_units>  (221) 
nM

>  <pchembl_value>  (221) 
7

>  <published_type>  (221) 
I50

>  <activity_comment>  (221) 
None

$$$$

     RDKit          

 17 18  0  0  0  0  0  0  0  0999 V2000
    0.0000    0.0000    0.0000 C   0  0  0  0  0  0  0  0  0  0  0  0
    0.0000    0.0000    0.0000 C   0  0  0  0  0  0  0  0  0  0  0  0
    0.0000    0.0000    0.0000 O   0  0  0  0  0  0  0  0  0  0  0  0
    0.0000    0.0000    0.0000 O   0  0  0  0  0  0  0  0  0  0  0  0
    0.0000    0.0000    0.0000 C   0  0  0  0  0  0  0  0  0  0  0  0
    0.0000    0.0000    0.0000 C   0  0  0  0  0  0  0  0  0  0  0  0
    0.0000    0.0000    0.0000 C   0  0  0  0  0  0  0  0  0  0  0  0
    0.0000    0.0000    0.0000 C   0  0  0  0  0  0  0  0  0  0  0  0
    0.0000    0.0000    0.0000 C   0  0  0  0  0  0  0  0  0  0  0  0
    0.0000    0.0000    0.0000 C   0  0  0  0  0  0  0  0  0  0  0  0
    0.0000    0.0000    0.0000 S   0  0  0  0  0  0  0  0  0  0  0  0
    0.0000    0.0000    0.0000 C   0  0  0  0  0  0  0  0  0  0  0  0
    0.0000    0.0000    0.0000 C   0  0  0  0  0  0  0  0  0  0  0  0
    0.0000    0.0000    0.0000 S   0  0  0  0  0  0  0  0  0  0  0  0
    0.0000    0.0000    0.0000 O   0  0  0  0  0  0  0  0  0  0  0  0
    0.0000    0.0000    0.0000 O   0  0  0  0  0  0  0  0  0  0  0  0
    0.0000    0.0000    0.0000 N   0  0  0  0  0  0  0  0  0  0  0  0
  1  2  1  0
  2  3  2  0
  2  4  1  0
  4  5  1  0
  5  6  2  0
  6  7  1  0
  7  8  2  0
  8  9  1  0
  9 10  2  0
 10 11  1  0
 11 12  1  0
 12 13  2  0
 10 14  1  0
 14 15  2  0
 14 16  2  0
 14 17  1  0
 13  5  1  0
 12  8  1  0
M  END
>  <pIC50>  (222) 
8.4

>  <ChEMBL_ID>  (222) 
CHEMBL85636

>  <document_journal>  (222) 
J. Med. Chem.

>  <bao_endpoint>  (222) 
BAO_0000190

>  <potential_duplicate>  (222) 
False

>  <uo_units>  (222) 
UO_0000065

>  <canonical_smiles>  (222) 
CC(=O)Oc1ccc2cc(sc2c1)S(=O)(=O)N

>  <parent_molecule_chembl_id>  (222) 
CHEMBL85636

>  <assay_type>  (222) 
B

>  <src_id>  (222) 
1

>  <ligand_efficiency>  (222) 
{u'le': u'0.67', u'bei': u'30.95', u'sei': u'6.82', u'lle': u'7.11'}

>  <standard_flag>  (222) 
True

>  <molecule_chembl_id>  (222) 
CHEMBL85636

>  <target_organism>  (222) 
Homo sapiens

>  <standard_units>  (222) 
nM

>  <record_id>  (222) 
154378

>  <document_chembl_id>  (222) 
CHEMBL1124376

>  <bao_format>  (222) 
BAO_0000357

>  <data_validity_description>  (222) 
None

>  <activity_id>  (222) 
1029426

>  <standard_type>  (222) 
IC50

>  <target_chembl_id>  (222) 
CHEMBL205

>  <data_validity_comment>  (222) 
None

>  <published_value>  (222) 
4

>  <document_year>  (222) 
1989

>  <target_pref_name>  (222) 
Carbonic anhydrase II

>  <assay_chembl_id>  (222) 
CHEMBL656572

>  <standard_relation>  (222) 
=

>  <assay_description>  (222) 
Concentration of inhibitor required to reduce the rate of carbonic anhydrase II catalyzed CO2 hydration by 50%. 

>  <published_relation>  (222) 
=

>  <standard_value>  (222) 
4

>  <qudt_units>  (222) 
http://www.openphacts.org/units/Nanomolar

>  <target_tax_id>  (222) 
9606

>  <bao_label>  (222) 
single protein format

>  <published_units>  (222) 
nM

>  <pchembl_value>  (222) 
8.4

>  <published_type>  (222) 
I50

>  <activity_comment>  (222) 
None

$$$$

     RDKit          

 19 20  0  0  0  0  0  0  0  0999 V2000
    0.0000    0.0000    0.0000 C   0  0  0  0  0  0  0  0  0  0  0  0
    0.0000    0.0000    0.0000 N   0  0  0  0  0  0  0  0  0  0  0  0
    0.0000    0.0000    0.0000 C   0  0  0  0  0  0  0  0  0  0  0  0
    0.0000    0.0000    0.0000 C   0  0  0  0  0  0  0  0  0  0  0  0
    0.0000    0.0000    0.0000 O   0  0  0  0  0  0  0  0  0  0  0  0
    0.0000    0.0000    0.0000 O   0  0  0  0  0  0  0  0  0  0  0  0
    0.0000    0.0000    0.0000 C   0  0  0  0  0  0  0  0  0  0  0  0
    0.0000    0.0000    0.0000 C   0  0  0  0  0  0  0  0  0  0  0  0
    0.0000    0.0000    0.0000 C   0  0  0  0  0  0  0  0  0  0  0  0
    0.0000    0.0000    0.0000 C   0  0  0  0  0  0  0  0  0  0  0  0
    0.0000    0.0000    0.0000 S   0  0  0  0  0  0  0  0  0  0  0  0
    0.0000    0.0000    0.0000 C   0  0  0  0  0  0  0  0  0  0  0  0
    0.0000    0.0000    0.0000 C   0  0  0  0  0  0  0  0  0  0  0  0
    0.0000    0.0000    0.0000 C   0  0  0  0  0  0  0  0  0  0  0  0
    0.0000    0.0000    0.0000 C   0  0  0  0  0  0  0  0  0  0  0  0
    0.0000    0.0000    0.0000 S   0  0  0  0  0  0  0  0  0  0  0  0
    0.0000    0.0000    0.0000 O   0  0  0  0  0  0  0  0  0  0  0  0
    0.0000    0.0000    0.0000 O   0  0  0  0  0  0  0  0  0  0  0  0
    0.0000    0.0000    0.0000 N   0  0  0  0  0  0  0  0  0  0  0  0
  1  2  1  0
  2  3  1  0
  2  4  1  0
  4  5  2  0
  4  6  1  0
  6  7  1  0
  7  8  2  0
  8  9  1  0
  9 10  2  0
 10 11  1  0
 11 12  1  0
 12 13  2  0
 13 14  1  0
 14 15  2  0
 12 16  1  0
 16 17  2  0
 16 18  2  0
 16 19  1  0
 15  7  1  0
 14 10  1  0
M  END
>  <pIC50>  (223) 
8.3

>  <ChEMBL_ID>  (223) 
CHEMBL83298

>  <document_journal>  (223) 
J. Med. Chem.

>  <bao_endpoint>  (223) 
BAO_0000190

>  <potential_duplicate>  (223) 
False

>  <uo_units>  (223) 
UO_0000065

>  <canonical_smiles>  (223) 
CN(C)C(=O)Oc1ccc2sc(cc2c1)S(=O)(=O)N

>  <parent_molecule_chembl_id>  (223) 
CHEMBL83298

>  <assay_type>  (223) 
B

>  <src_id>  (223) 
1

>  <ligand_efficiency>  (223) 
{u'le': u'0.6', u'bei': u'27.64', u'sei': u'6.57', u'lle': u'6.81'}

>  <standard_flag>  (223) 
True

>  <molecule_chembl_id>  (223) 
CHEMBL83298

>  <target_organism>  (223) 
Homo sapiens

>  <standard_units>  (223) 
nM

>  <record_id>  (223) 
154357

>  <document_chembl_id>  (223) 
CHEMBL1124376

>  <bao_format>  (223) 
BAO_0000019

>  <data_validity_description>  (223) 
None

>  <activity_id>  (223) 
1030536

>  <standard_type>  (223) 
IC50

>  <target_chembl_id>  (223) 
CHEMBL205

>  <data_validity_comment>  (223) 
None

>  <published_value>  (223) 
5

>  <document_year>  (223) 
1989

>  <target_pref_name>  (223) 
Carbonic anhydrase II

>  <assay_chembl_id>  (223) 
CHEMBL656570

>  <standard_relation>  (223) 
=

>  <assay_description>  (223) 
50% inhibition of human carbonic anhydrase II assayed by CO2 hydration catalyzed by human erythrocytes

>  <published_relation>  (223) 
=

>  <standard_value>  (223) 
5

>  <qudt_units>  (223) 
http://www.openphacts.org/units/Nanomolar

>  <target_tax_id>  (223) 
9606

>  <bao_label>  (223) 
assay format

>  <published_units>  (223) 
nM

>  <pchembl_value>  (223) 
8.3

>  <published_type>  (223) 
I50

>  <activity_comment>  (223) 
None

$$$$

     RDKit          

 18 19  0  0  0  0  0  0  0  0999 V2000
    0.0000    0.0000    0.0000 N   0  0  0  0  0  0  0  0  0  0  0  0
    0.0000    0.0000    0.0000 S   0  0  0  0  0  0  0  0  0  0  0  0
    0.0000    0.0000    0.0000 O   0  0  0  0  0  0  0  0  0  0  0  0
    0.0000    0.0000    0.0000 O   0  0  0  0  0  0  0  0  0  0  0  0
    0.0000    0.0000    0.0000 C   0  0  0  0  0  0  0  0  0  0  0  0
    0.0000    0.0000    0.0000 C   0  0  0  0  0  0  0  0  0  0  0  0
    0.0000    0.0000    0.0000 C   0  0  0  0  0  0  0  0  0  0  0  0
    0.0000    0.0000    0.0000 C   0  0  0  0  0  0  0  0  0  0  0  0
    0.0000    0.0000    0.0000 C   0  0  0  0  0  0  0  0  0  0  0  0
    0.0000    0.0000    0.0000 C   0  0  0  0  0  0  0  0  0  0  0  0
    0.0000    0.0000    0.0000 O   0  0  0  0  0  0  0  0  0  0  0  0
    0.0000    0.0000    0.0000 S   0  0  0  0  0  0  0  0  0  0  0  0
    0.0000    0.0000    0.0000 O   0  0  0  0  0  0  0  0  0  0  0  0
    0.0000    0.0000    0.0000 O   0  0  0  0  0  0  0  0  0  0  0  0
    0.0000    0.0000    0.0000 O   0  0  0  0  0  0  0  0  0  0  0  0
    0.0000    0.0000    0.0000 C   0  0  0  0  0  0  0  0  0  0  0  0
    0.0000    0.0000    0.0000 C   0  0  0  0  0  0  0  0  0  0  0  0
    0.0000    0.0000    0.0000 S   0  0  0  0  0  0  0  0  0  0  0  0
  1  2  1  0
  2  3  2  0
  2  4  2  0
  2  5  1  0
  5  6  2  0
  6  7  1  0
  7  8  2  0
  8  9  1  0
  9 10  2  0
 10 11  1  0
 11 12  1  0
 12 13  2  0
 12 14  2  0
 12 15  1  0
 10 16  1  0
 16 17  2  0
 17 18  1  0
 18  5  1  0
 17  7  1  0
M  END
>  <pIC50>  (224) 
8.17

>  <ChEMBL_ID>  (224) 
CHEMBL83232

>  <document_journal>  (224) 
J. Med. Chem.

>  <bao_endpoint>  (224) 
BAO_0000190

>  <potential_duplicate>  (224) 
False

>  <uo_units>  (224) 
UO_0000065

>  <canonical_smiles>  (224) 
[Na+].NS(=O)(=O)c1cc2ccc(OS(=O)(=O)[O-])cc2s1

>  <parent_molecule_chembl_id>  (224) 
CHEMBL1205320

>  <assay_type>  (224) 
B

>  <src_id>  (224) 
1

>  <ligand_efficiency>  (224) 
{u'le': u'0.62', u'bei': u'26.4', u'sei': u'4.84', u'lle': u'7.28'}

>  <standard_flag>  (224) 
True

>  <molecule_chembl_id>  (224) 
CHEMBL83232

>  <target_organism>  (224) 
Homo sapiens

>  <standard_units>  (224) 
nM

>  <record_id>  (224) 
154356

>  <document_chembl_id>  (224) 
CHEMBL1124376

>  <bao_format>  (224) 
BAO_0000019

>  <data_validity_description>  (224) 
None

>  <activity_id>  (224) 
1030537

>  <standard_type>  (224) 
IC50

>  <target_chembl_id>  (224) 
CHEMBL205

>  <data_validity_comment>  (224) 
None

>  <published_value>  (224) 
6.8

>  <document_year>  (224) 
1989

>  <target_pref_name>  (224) 
Carbonic anhydrase II

>  <assay_chembl_id>  (224) 
CHEMBL656570

>  <standard_relation>  (224) 
=

>  <assay_description>  (224) 
50% inhibition of human carbonic anhydrase II assayed by CO2 hydration catalyzed by human erythrocytes

>  <published_relation>  (224) 
=

>  <standard_value>  (224) 
6.8

>  <qudt_units>  (224) 
http://www.openphacts.org/units/Nanomolar

>  <target_tax_id>  (224) 
9606

>  <bao_label>  (224) 
assay format

>  <published_units>  (224) 
nM

>  <pchembl_value>  (224) 
8.17

>  <published_type>  (224) 
I50

>  <activity_comment>  (224) 
None

$$$$

     RDKit          

 14 15  0  0  0  0  0  0  0  0999 V2000
    0.0000    0.0000    0.0000 N   0  0  0  0  0  0  0  0  0  0  0  0
    0.0000    0.0000    0.0000 C   0  0  0  0  0  0  0  0  0  0  0  0
    0.0000    0.0000    0.0000 C   0  0  0  0  0  0  0  0  0  0  0  0
    0.0000    0.0000    0.0000 C   0  0  0  0  0  0  0  0  0  0  0  0
    0.0000    0.0000    0.0000 C   0  0  0  0  0  0  0  0  0  0  0  0
    0.0000    0.0000    0.0000 C   0  0  0  0  0  0  0  0  0  0  0  0
    0.0000    0.0000    0.0000 C   0  0  0  0  0  0  0  0  0  0  0  0
    0.0000    0.0000    0.0000 S   0  0  0  0  0  0  0  0  0  0  0  0
    0.0000    0.0000    0.0000 C   0  0  0  0  0  0  0  0  0  0  0  0
    0.0000    0.0000    0.0000 C   0  0  0  0  0  0  0  0  0  0  0  0
    0.0000    0.0000    0.0000 S   0  0  0  0  0  0  0  0  0  0  0  0
    0.0000    0.0000    0.0000 O   0  0  0  0  0  0  0  0  0  0  0  0
    0.0000    0.0000    0.0000 O   0  0  0  0  0  0  0  0  0  0  0  0
    0.0000    0.0000    0.0000 N   0  0  0  0  0  0  0  0  0  0  0  0
  1  2  1  0
  2  3  2  0
  3  4  1  0
  4  5  2  0
  5  6  1  0
  6  7  2  0
  7  8  1  0
  8  9  1  0
  9 10  2  0
  7 11  1  0
 11 12  2  0
 11 13  2  0
 11 14  1  0
 10  2  1  0
  9  5  1  0
M  END
>  <pIC50>  (225) 
8.0

>  <ChEMBL_ID>  (225) 
CHEMBL85910

>  <document_journal>  (225) 
J. Med. Chem.

>  <bao_endpoint>  (225) 
BAO_0000190

>  <potential_duplicate>  (225) 
False

>  <uo_units>  (225) 
UO_0000065

>  <canonical_smiles>  (225) 
Nc1ccc2cc(sc2c1)S(=O)(=O)N

>  <parent_molecule_chembl_id>  (225) 
CHEMBL85910

>  <assay_type>  (225) 
B

>  <src_id>  (225) 
1

>  <ligand_efficiency>  (225) 
{u'le': u'0.78', u'bei': u'35.04', u'sei': u'6.52', u'lle': u'7.23'}

>  <standard_flag>  (225) 
True

>  <molecule_chembl_id>  (225) 
CHEMBL85910

>  <target_organism>  (225) 
Homo sapiens

>  <standard_units>  (225) 
nM

>  <record_id>  (225) 
154375

>  <document_chembl_id>  (225) 
CHEMBL1124376

>  <bao_format>  (225) 
BAO_0000019

>  <data_validity_description>  (225) 
None

>  <activity_id>  (225) 
1031766

>  <standard_type>  (225) 
IC50

>  <target_chembl_id>  (225) 
CHEMBL205

>  <data_validity_comment>  (225) 
None

>  <published_value>  (225) 
10

>  <document_year>  (225) 
1989

>  <target_pref_name>  (225) 
Carbonic anhydrase II

>  <assay_chembl_id>  (225) 
CHEMBL656570

>  <standard_relation>  (225) 
=

>  <assay_description>  (225) 
50% inhibition of human carbonic anhydrase II assayed by CO2 hydration catalyzed by human erythrocytes

>  <published_relation>  (225) 
=

>  <standard_value>  (225) 
10

>  <qudt_units>  (225) 
http://www.openphacts.org/units/Nanomolar

>  <target_tax_id>  (225) 
9606

>  <bao_label>  (225) 
assay format

>  <published_units>  (225) 
nM

>  <pchembl_value>  (225) 
8

>  <published_type>  (225) 
I50

>  <activity_comment>  (225) 
None

$$$$

     RDKit          

 20 22  0  0  0  0  0  0  0  0999 V2000
    0.0000    0.0000    0.0000 N   0  0  0  0  0  0  0  0  0  0  0  0
    0.0000    0.0000    0.0000 S   0  0  0  0  0  0  0  0  0  0  0  0
    0.0000    0.0000    0.0000 O   0  0  0  0  0  0  0  0  0  0  0  0
    0.0000    0.0000    0.0000 O   0  0  0  0  0  0  0  0  0  0  0  0
    0.0000    0.0000    0.0000 C   0  0  0  0  0  0  0  0  0  0  0  0
    0.0000    0.0000    0.0000 C   0  0  0  0  0  0  0  0  0  0  0  0
    0.0000    0.0000    0.0000 C   0  0  0  0  0  0  0  0  0  0  0  0
    0.0000    0.0000    0.0000 C   0  0  0  0  0  0  0  0  0  0  0  0
    0.0000    0.0000    0.0000 C   0  0  0  0  0  0  0  0  0  0  0  0
    0.0000    0.0000    0.0000 C   0  0  0  0  0  0  0  0  0  0  0  0
    0.0000    0.0000    0.0000 N   0  0  0  0  0  0  0  0  0  0  0  0
    0.0000    0.0000    0.0000 C   0  0  0  0  0  0  0  0  0  0  0  0
    0.0000    0.0000    0.0000 C   0  0  0  0  0  0  0  0  0  0  0  0
    0.0000    0.0000    0.0000 O   0  0  0  0  0  0  0  0  0  0  0  0
    0.0000    0.0000    0.0000 C   0  0  0  0  0  0  0  0  0  0  0  0
    0.0000    0.0000    0.0000 C   0  0  0  0  0  0  0  0  0  0  0  0
    0.0000    0.0000    0.0000 C   0  0  0  0  0  0  0  0  0  0  0  0
    0.0000    0.0000    0.0000 C   0  0  0  0  0  0  0  0  0  0  0  0
    0.0000    0.0000    0.0000 C   0  0  0  0  0  0  0  0  0  0  0  0
    0.0000    0.0000    0.0000 S   0  0  0  0  0  0  0  0  0  0  0  0
  1  2  1  0
  2  3  2  0
  2  4  2  0
  2  5  1  0
  5  6  2  0
  6  7  1  0
  7  8  2  0
  8  9  1  0
  9 10  1  0
 10 11  1  0
 11 12  1  0
 12 13  1  0
 13 14  1  0
 14 15  1  0
 15 16  1  0
  9 17  2  0
 17 18  1  0
 18 19  2  0
 19 20  1  0
 20  5  1  0
 19  7  1  0
 16 11  1  0
M  END
>  <pIC50>  (226) 
7.82

>  <ChEMBL_ID>  (226) 
CHEMBL553845

>  <document_journal>  (226) 
J. Med. Chem.

>  <bao_endpoint>  (226) 
BAO_0000190

>  <potential_duplicate>  (226) 
False

>  <uo_units>  (226) 
UO_0000065

>  <canonical_smiles>  (226) 
Cl.NS(=O)(=O)c1cc2cc(CN3CCOCC3)ccc2s1

>  <parent_molecule_chembl_id>  (226) 
CHEMBL1195107

>  <assay_type>  (226) 
B

>  <src_id>  (226) 
1

>  <ligand_efficiency>  (226) 
{u'le': u'0.53', u'bei': u'25.04', u'sei': u'7.16', u'lle': u'6.54'}

>  <standard_flag>  (226) 
True

>  <molecule_chembl_id>  (226) 
CHEMBL553845

>  <target_organism>  (226) 
Homo sapiens

>  <standard_units>  (226) 
nM

>  <record_id>  (226) 
154372

>  <document_chembl_id>  (226) 
CHEMBL1124376

>  <bao_format>  (226) 
BAO_0000019

>  <data_validity_description>  (226) 
None

>  <activity_id>  (226) 
1031767

>  <standard_type>  (226) 
IC50

>  <target_chembl_id>  (226) 
CHEMBL205

>  <data_validity_comment>  (226) 
None

>  <published_value>  (226) 
15

>  <document_year>  (226) 
1989

>  <target_pref_name>  (226) 
Carbonic anhydrase II

>  <assay_chembl_id>  (226) 
CHEMBL656570

>  <standard_relation>  (226) 
=

>  <assay_description>  (226) 
50% inhibition of human carbonic anhydrase II assayed by CO2 hydration catalyzed by human erythrocytes

>  <published_relation>  (226) 
=

>  <standard_value>  (226) 
15

>  <qudt_units>  (226) 
http://www.openphacts.org/units/Nanomolar

>  <target_tax_id>  (226) 
9606

>  <bao_label>  (226) 
assay format

>  <published_units>  (226) 
nM

>  <pchembl_value>  (226) 
7.82

>  <published_type>  (226) 
I50

>  <activity_comment>  (226) 
None

$$$$

     RDKit          

 14 15  0  0  0  0  0  0  0  0999 V2000
    0.0000    0.0000    0.0000 N   0  0  0  0  0  0  0  0  0  0  0  0
    0.0000    0.0000    0.0000 S   0  0  0  0  0  0  0  0  0  0  0  0
    0.0000    0.0000    0.0000 O   0  0  0  0  0  0  0  0  0  0  0  0
    0.0000    0.0000    0.0000 O   0  0  0  0  0  0  0  0  0  0  0  0
    0.0000    0.0000    0.0000 C   0  0  0  0  0  0  0  0  0  0  0  0
    0.0000    0.0000    0.0000 C   0  0  0  0  0  0  0  0  0  0  0  0
    0.0000    0.0000    0.0000 C   0  0  0  0  0  0  0  0  0  0  0  0
    0.0000    0.0000    0.0000 C   0  0  0  0  0  0  0  0  0  0  0  0
    0.0000    0.0000    0.0000 C   0  0  0  0  0  0  0  0  0  0  0  0
    0.0000    0.0000    0.0000 O   0  0  0  0  0  0  0  0  0  0  0  0
    0.0000    0.0000    0.0000 C   0  0  0  0  0  0  0  0  0  0  0  0
    0.0000    0.0000    0.0000 C   0  0  0  0  0  0  0  0  0  0  0  0
    0.0000    0.0000    0.0000 C   0  0  0  0  0  0  0  0  0  0  0  0
    0.0000    0.0000    0.0000 S   0  0  0  0  0  0  0  0  0  0  0  0
  1  2  1  0
  2  3  2  0
  2  4  2  0
  2  5  1  0
  5  6  2  0
  6  7  1  0
  7  8  2  0
  8  9  1  0
  9 10  1  0
  9 11  2  0
 11 12  1  0
 12 13  2  0
 13 14  1  0
 14  5  1  0
 13  7  1  0
M  END
>  <pIC50>  (227) 
8.21

>  <ChEMBL_ID>  (227) 
CHEMBL82813

>  <document_journal>  (227) 
J. Med. Chem.

>  <bao_endpoint>  (227) 
BAO_0000190

>  <potential_duplicate>  (227) 
False

>  <uo_units>  (227) 
UO_0000065

>  <canonical_smiles>  (227) 
NS(=O)(=O)c1cc2cc(O)ccc2s1

>  <parent_molecule_chembl_id>  (227) 
CHEMBL82813

>  <assay_type>  (227) 
B

>  <src_id>  (227) 
1

>  <ligand_efficiency>  (227) 
{u'le': u'0.8', u'bei': u'35.8', u'sei': u'7.01', u'lle': u'6.93'}

>  <standard_flag>  (227) 
True

>  <molecule_chembl_id>  (227) 
CHEMBL82813

>  <target_organism>  (227) 
Homo sapiens

>  <standard_units>  (227) 
nM

>  <record_id>  (227) 
154360

>  <document_chembl_id>  (227) 
CHEMBL1124376

>  <bao_format>  (227) 
BAO_0000019

>  <data_validity_description>  (227) 
None

>  <activity_id>  (227) 
1032989

>  <standard_type>  (227) 
IC50

>  <target_chembl_id>  (227) 
CHEMBL205

>  <data_validity_comment>  (227) 
None

>  <published_value>  (227) 
6.2

>  <document_year>  (227) 
1989

>  <target_pref_name>  (227) 
Carbonic anhydrase II

>  <assay_chembl_id>  (227) 
CHEMBL656570

>  <standard_relation>  (227) 
=

>  <assay_description>  (227) 
50% inhibition of human carbonic anhydrase II assayed by CO2 hydration catalyzed by human erythrocytes

>  <published_relation>  (227) 
=

>  <standard_value>  (227) 
6.2

>  <qudt_units>  (227) 
http://www.openphacts.org/units/Nanomolar

>  <target_tax_id>  (227) 
9606

>  <bao_label>  (227) 
assay format

>  <published_units>  (227) 
nM

>  <pchembl_value>  (227) 
8.21

>  <published_type>  (227) 
I50

>  <activity_comment>  (227) 
None

$$$$

     RDKit          

 15 16  0  0  0  0  0  0  0  0999 V2000
    0.0000    0.0000    0.0000 C   0  0  0  0  0  0  0  0  0  0  0  0
    0.0000    0.0000    0.0000 O   0  0  0  0  0  0  0  0  0  0  0  0
    0.0000    0.0000    0.0000 C   0  0  0  0  0  0  0  0  0  0  0  0
    0.0000    0.0000    0.0000 C   0  0  0  0  0  0  0  0  0  0  0  0
    0.0000    0.0000    0.0000 C   0  0  0  0  0  0  0  0  0  0  0  0
    0.0000    0.0000    0.0000 C   0  0  0  0  0  0  0  0  0  0  0  0
    0.0000    0.0000    0.0000 S   0  0  0  0  0  0  0  0  0  0  0  0
    0.0000    0.0000    0.0000 C   0  0  0  0  0  0  0  0  0  0  0  0
    0.0000    0.0000    0.0000 C   0  0  0  0  0  0  0  0  0  0  0  0
    0.0000    0.0000    0.0000 C   0  0  0  0  0  0  0  0  0  0  0  0
    0.0000    0.0000    0.0000 C   0  0  0  0  0  0  0  0  0  0  0  0
    0.0000    0.0000    0.0000 S   0  0  0  0  0  0  0  0  0  0  0  0
    0.0000    0.0000    0.0000 O   0  0  0  0  0  0  0  0  0  0  0  0
    0.0000    0.0000    0.0000 O   0  0  0  0  0  0  0  0  0  0  0  0
    0.0000    0.0000    0.0000 N   0  0  0  0  0  0  0  0  0  0  0  0
  1  2  1  0
  2  3  1  0
  3  4  2  0
  4  5  1  0
  5  6  2  0
  6  7  1  0
  7  8  1  0
  8  9  2  0
  9 10  1  0
 10 11  2  0
  8 12  1  0
 12 13  2  0
 12 14  2  0
 12 15  1  0
 11  3  1  0
 10  6  1  0
M  END
>  <pIC50>  (228) 
7.64

>  <ChEMBL_ID>  (228) 
CHEMBL87740

>  <document_journal>  (228) 
J. Med. Chem.

>  <bao_endpoint>  (228) 
BAO_0000190

>  <potential_duplicate>  (228) 
False

>  <uo_units>  (228) 
UO_0000065

>  <canonical_smiles>  (228) 
COc1ccc2sc(cc2c1)S(=O)(=O)N

>  <parent_molecule_chembl_id>  (228) 
CHEMBL87740

>  <assay_type>  (228) 
B

>  <src_id>  (228) 
1

>  <ligand_efficiency>  (228) 
{u'le': u'0.7', u'bei': u'31.39', u'sei': u'7.21', u'lle': u'6.13'}

>  <standard_flag>  (228) 
True

>  <molecule_chembl_id>  (228) 
CHEMBL87740

>  <target_organism>  (228) 
Homo sapiens

>  <standard_units>  (228) 
nM

>  <record_id>  (228) 
154362

>  <document_chembl_id>  (228) 
CHEMBL1124376

>  <bao_format>  (228) 
BAO_0000019

>  <data_validity_description>  (228) 
None

>  <activity_id>  (228) 
1035524

>  <standard_type>  (228) 
IC50

>  <target_chembl_id>  (228) 
CHEMBL205

>  <data_validity_comment>  (228) 
None

>  <published_value>  (228) 
23

>  <document_year>  (228) 
1989

>  <target_pref_name>  (228) 
Carbonic anhydrase II

>  <assay_chembl_id>  (228) 
CHEMBL656570

>  <standard_relation>  (228) 
=

>  <assay_description>  (228) 
50% inhibition of human carbonic anhydrase II assayed by CO2 hydration catalyzed by human erythrocytes

>  <published_relation>  (228) 
=

>  <standard_value>  (228) 
23

>  <qudt_units>  (228) 
http://www.openphacts.org/units/Nanomolar

>  <target_tax_id>  (228) 
9606

>  <bao_label>  (228) 
assay format

>  <published_units>  (228) 
nM

>  <pchembl_value>  (228) 
7.64

>  <published_type>  (228) 
I50

>  <activity_comment>  (228) 
None

$$$$

     RDKit          

 15 16  0  0  0  0  0  0  0  0999 V2000
    0.0000    0.0000    0.0000 N   0  0  0  0  0  0  0  0  0  0  0  0
    0.0000    0.0000    0.0000 S   0  0  0  0  0  0  0  0  0  0  0  0
    0.0000    0.0000    0.0000 O   0  0  0  0  0  0  0  0  0  0  0  0
    0.0000    0.0000    0.0000 O   0  0  0  0  0  0  0  0  0  0  0  0
    0.0000    0.0000    0.0000 C   0  0  0  0  0  0  0  0  0  0  0  0
    0.0000    0.0000    0.0000 C   0  0  0  0  0  0  0  0  0  0  0  0
    0.0000    0.0000    0.0000 C   0  0  0  0  0  0  0  0  0  0  0  0
    0.0000    0.0000    0.0000 C   0  0  0  0  0  0  0  0  0  0  0  0
    0.0000    0.0000    0.0000 C   0  0  0  0  0  0  0  0  0  0  0  0
    0.0000    0.0000    0.0000 C   0  0  0  0  0  0  0  0  0  0  0  0
    0.0000    0.0000    0.0000 O   0  0  0  0  0  0  0  0  0  0  0  0
    0.0000    0.0000    0.0000 C   0  0  0  0  0  0  0  0  0  0  0  0
    0.0000    0.0000    0.0000 C   0  0  0  0  0  0  0  0  0  0  0  0
    0.0000    0.0000    0.0000 C   0  0  0  0  0  0  0  0  0  0  0  0
    0.0000    0.0000    0.0000 S   0  0  0  0  0  0  0  0  0  0  0  0
  1  2  1  0
  2  3  2  0
  2  4  2  0
  2  5  1  0
  5  6  2  0
  6  7  1  0
  7  8  2  0
  8  9  1  0
  9 10  1  0
 10 11  1  0
  9 12  2  0
 12 13  1  0
 13 14  2  0
 14 15  1  0
 15  5  1  0
 14  7  1  0
M  END
>  <pIC50>  (229) 
8.05

>  <ChEMBL_ID>  (229) 
CHEMBL87179

>  <document_journal>  (229) 
J. Med. Chem.

>  <bao_endpoint>  (229) 
BAO_0000190

>  <potential_duplicate>  (229) 
False

>  <uo_units>  (229) 
UO_0000065

>  <canonical_smiles>  (229) 
NS(=O)(=O)c1cc2cc(CO)ccc2s1

>  <parent_molecule_chembl_id>  (229) 
CHEMBL87179

>  <assay_type>  (229) 
B

>  <src_id>  (229) 
1

>  <ligand_efficiency>  (229) 
{u'le': u'0.73', u'bei': u'33.07', u'sei': u'6.88', u'lle': u'7.13'}

>  <standard_flag>  (229) 
True

>  <molecule_chembl_id>  (229) 
CHEMBL87179

>  <target_organism>  (229) 
Homo sapiens

>  <standard_units>  (229) 
nM

>  <record_id>  (229) 
154350

>  <document_chembl_id>  (229) 
CHEMBL1124376

>  <bao_format>  (229) 
BAO_0000019

>  <data_validity_description>  (229) 
None

>  <activity_id>  (229) 
1036709

>  <standard_type>  (229) 
IC50

>  <target_chembl_id>  (229) 
CHEMBL205

>  <data_validity_comment>  (229) 
None

>  <published_value>  (229) 
9

>  <document_year>  (229) 
1989

>  <target_pref_name>  (229) 
Carbonic anhydrase II

>  <assay_chembl_id>  (229) 
CHEMBL656570

>  <standard_relation>  (229) 
=

>  <assay_description>  (229) 
50% inhibition of human carbonic anhydrase II assayed by CO2 hydration catalyzed by human erythrocytes

>  <published_relation>  (229) 
=

>  <standard_value>  (229) 
9

>  <qudt_units>  (229) 
http://www.openphacts.org/units/Nanomolar

>  <target_tax_id>  (229) 
9606

>  <bao_label>  (229) 
assay format

>  <published_units>  (229) 
nM

>  <pchembl_value>  (229) 
8.05

>  <published_type>  (229) 
I50

>  <activity_comment>  (229) 
None

$$$$

     RDKit          

 25 27  0  0  0  0  0  0  0  0999 V2000
    0.0000    0.0000    0.0000 C   0  0  0  0  0  0  0  0  0  0  0  0
    0.0000    0.0000    0.0000 C   0  0  0  0  0  0  0  0  0  0  0  0
    0.0000    0.0000    0.0000 C   0  0  0  0  0  0  0  0  0  0  0  0
    0.0000    0.0000    0.0000 C   0  0  0  0  0  0  0  0  0  0  0  0
    0.0000    0.0000    0.0000 N   0  0  0  0  0  0  0  0  0  0  0  0
    0.0000    0.0000    0.0000 C   0  0  0  0  0  0  0  0  0  0  0  0
    0.0000    0.0000    0.0000 C   0  0  0  0  0  0  0  0  0  0  0  0
    0.0000    0.0000    0.0000 C   0  0  0  0  0  0  0  0  0  0  0  0
    0.0000    0.0000    0.0000 O   0  0  0  0  0  0  0  0  0  0  0  0
    0.0000    0.0000    0.0000 C   0  0  0  0  0  0  0  0  0  0  0  0
    0.0000    0.0000    0.0000 C   0  0  0  0  0  0  0  0  0  0  0  0
    0.0000    0.0000    0.0000 C   0  0  0  0  0  0  0  0  0  0  0  0
    0.0000    0.0000    0.0000 C   0  0  0  0  0  0  0  0  0  0  0  0
    0.0000    0.0000    0.0000 C   0  0  0  0  0  0  0  0  0  0  0  0
    0.0000    0.0000    0.0000 C   0  0  0  0  0  0  0  0  0  0  0  0
    0.0000    0.0000    0.0000 S   0  0  0  0  0  0  0  0  0  0  0  0
    0.0000    0.0000    0.0000 C   0  0  0  0  0  0  0  0  0  0  0  0
    0.0000    0.0000    0.0000 C   0  0  0  0  0  0  0  0  0  0  0  0
    0.0000    0.0000    0.0000 S   0  0  0  0  0  0  0  0  0  0  0  0
    0.0000    0.0000    0.0000 O   0  0  0  0  0  0  0  0  0  0  0  0
    0.0000    0.0000    0.0000 O   0  0  0  0  0  0  0  0  0  0  0  0
    0.0000    0.0000    0.0000 N   0  0  0  0  0  0  0  0  0  0  0  0
    0.0000    0.0000    0.0000 O   0  0  0  0  0  0  0  0  0  0  0  0
    0.0000    0.0000    0.0000 C   0  0  0  0  0  0  0  0  0  0  0  0
    0.0000    0.0000    0.0000 O   0  0  0  0  0  0  0  0  0  0  0  0
  1  2  1  0
  2  3  1  0
  2  4  1  0
  2  5  1  0
  5  6  1  0
  6  7  1  0
  7  8  1  0
  8  9  1  0
  9 10  1  0
 10 11  2  0
 11 12  1  0
 12 13  2  0
 13 14  1  0
 14 15  2  0
 15 16  1  0
 16 17  1  0
 17 18  2  0
 15 19  1  0
 19 20  2  0
 19 21  2  0
 19 22  1  0
  7 23  1  0
 23 24  1  0
 24 25  2  0
 24  5  1  0
 18 10  1  0
 17 13  1  0
M  END
>  <pIC50>  (230) 
8.1

>  <ChEMBL_ID>  (230) 
CHEMBL86259

>  <document_journal>  (230) 
J. Med. Chem.

>  <bao_endpoint>  (230) 
BAO_0000190

>  <potential_duplicate>  (230) 
False

>  <uo_units>  (230) 
UO_0000065

>  <canonical_smiles>  (230) 
CC(C)(C)N1CC(COc2ccc3cc(sc3c2)S(=O)(=O)N)OC1=O

>  <parent_molecule_chembl_id>  (230) 
CHEMBL86259

>  <assay_type>  (230) 
B

>  <src_id>  (230) 
1

>  <ligand_efficiency>  (230) 
{u'le': u'0.44', u'bei': u'21.06', u'sei': u'5.97', u'lle': u'5.77'}

>  <standard_flag>  (230) 
True

>  <molecule_chembl_id>  (230) 
CHEMBL86259

>  <target_organism>  (230) 
Homo sapiens

>  <standard_units>  (230) 
nM

>  <record_id>  (230) 
154349

>  <document_chembl_id>  (230) 
CHEMBL1124376

>  <bao_format>  (230) 
BAO_0000019

>  <data_validity_description>  (230) 
None

>  <activity_id>  (230) 
1037910

>  <standard_type>  (230) 
IC50

>  <target_chembl_id>  (230) 
CHEMBL205

>  <data_validity_comment>  (230) 
None

>  <published_value>  (230) 
8

>  <document_year>  (230) 
1989

>  <target_pref_name>  (230) 
Carbonic anhydrase II

>  <assay_chembl_id>  (230) 
CHEMBL656570

>  <standard_relation>  (230) 
=

>  <assay_description>  (230) 
50% inhibition of human carbonic anhydrase II assayed by CO2 hydration catalyzed by human erythrocytes

>  <published_relation>  (230) 
=

>  <standard_value>  (230) 
8

>  <qudt_units>  (230) 
http://www.openphacts.org/units/Nanomolar

>  <target_tax_id>  (230) 
9606

>  <bao_label>  (230) 
assay format

>  <published_units>  (230) 
nM

>  <pchembl_value>  (230) 
8.1

>  <published_type>  (230) 
I50

>  <activity_comment>  (230) 
None

$$$$

     RDKit          

 15 16  0  0  0  0  0  0  0  0999 V2000
    0.0000    0.0000    0.0000 C   0  0  0  0  0  0  0  0  0  0  0  0
    0.0000    0.0000    0.0000 O   0  0  0  0  0  0  0  0  0  0  0  0
    0.0000    0.0000    0.0000 C   0  0  0  0  0  0  0  0  0  0  0  0
    0.0000    0.0000    0.0000 C   0  0  0  0  0  0  0  0  0  0  0  0
    0.0000    0.0000    0.0000 C   0  0  0  0  0  0  0  0  0  0  0  0
    0.0000    0.0000    0.0000 C   0  0  0  0  0  0  0  0  0  0  0  0
    0.0000    0.0000    0.0000 C   0  0  0  0  0  0  0  0  0  0  0  0
    0.0000    0.0000    0.0000 C   0  0  0  0  0  0  0  0  0  0  0  0
    0.0000    0.0000    0.0000 S   0  0  0  0  0  0  0  0  0  0  0  0
    0.0000    0.0000    0.0000 C   0  0  0  0  0  0  0  0  0  0  0  0
    0.0000    0.0000    0.0000 C   0  0  0  0  0  0  0  0  0  0  0  0
    0.0000    0.0000    0.0000 S   0  0  0  0  0  0  0  0  0  0  0  0
    0.0000    0.0000    0.0000 O   0  0  0  0  0  0  0  0  0  0  0  0
    0.0000    0.0000    0.0000 O   0  0  0  0  0  0  0  0  0  0  0  0
    0.0000    0.0000    0.0000 N   0  0  0  0  0  0  0  0  0  0  0  0
  1  2  1  0
  2  3  1  0
  3  4  2  0
  4  5  1  0
  5  6  2  0
  6  7  1  0
  7  8  2  0
  8  9  1  0
  9 10  1  0
 10 11  2  0
  8 12  1  0
 12 13  2  0
 12 14  2  0
 12 15  1  0
 11  3  1  0
 10  6  1  0
M  END
>  <pIC50>  (231) 
8.06

>  <ChEMBL_ID>  (231) 
CHEMBL87939

>  <document_journal>  (231) 
J. Med. Chem.

>  <bao_endpoint>  (231) 
BAO_0000190

>  <potential_duplicate>  (231) 
False

>  <uo_units>  (231) 
UO_0000065

>  <canonical_smiles>  (231) 
COc1ccc2cc(sc2c1)S(=O)(=O)N

>  <parent_molecule_chembl_id>  (231) 
CHEMBL87939

>  <assay_type>  (231) 
B

>  <src_id>  (231) 
1

>  <ligand_efficiency>  (231) 
{u'le': u'0.73', u'bei': u'33.11', u'sei': u'7.6', u'lle': u'6.55'}

>  <standard_flag>  (231) 
True

>  <molecule_chembl_id>  (231) 
CHEMBL87939

>  <target_organism>  (231) 
Homo sapiens

>  <standard_units>  (231) 
nM

>  <record_id>  (231) 
154364

>  <document_chembl_id>  (231) 
CHEMBL1124376

>  <bao_format>  (231) 
BAO_0000019

>  <data_validity_description>  (231) 
None

>  <activity_id>  (231) 
1042499

>  <standard_type>  (231) 
IC50

>  <target_chembl_id>  (231) 
CHEMBL205

>  <data_validity_comment>  (231) 
None

>  <published_value>  (231) 
8.8

>  <document_year>  (231) 
1989

>  <target_pref_name>  (231) 
Carbonic anhydrase II

>  <assay_chembl_id>  (231) 
CHEMBL656570

>  <standard_relation>  (231) 
=

>  <assay_description>  (231) 
50% inhibition of human carbonic anhydrase II assayed by CO2 hydration catalyzed by human erythrocytes

>  <published_relation>  (231) 
=

>  <standard_value>  (231) 
8.8

>  <qudt_units>  (231) 
http://www.openphacts.org/units/Nanomolar

>  <target_tax_id>  (231) 
9606

>  <bao_label>  (231) 
assay format

>  <published_units>  (231) 
nM

>  <pchembl_value>  (231) 
8.06

>  <published_type>  (231) 
I50

>  <activity_comment>  (231) 
None

$$$$

     RDKit          

 21 22  0  0  0  0  0  0  0  0999 V2000
    0.0000    0.0000    0.0000 C   0  0  0  0  0  0  0  0  0  0  0  0
    0.0000    0.0000    0.0000 C   0  0  0  0  0  0  0  0  0  0  0  0
    0.0000    0.0000    0.0000 C   0  0  0  0  0  0  0  0  0  0  0  0
    0.0000    0.0000    0.0000 C   0  0  0  0  0  0  0  0  0  0  0  0
    0.0000    0.0000    0.0000 O   0  0  0  0  0  0  0  0  0  0  0  0
    0.0000    0.0000    0.0000 C   0  0  0  0  0  0  0  0  0  0  0  0
    0.0000    0.0000    0.0000 O   0  0  0  0  0  0  0  0  0  0  0  0
    0.0000    0.0000    0.0000 O   0  0  0  0  0  0  0  0  0  0  0  0
    0.0000    0.0000    0.0000 C   0  0  0  0  0  0  0  0  0  0  0  0
    0.0000    0.0000    0.0000 C   0  0  0  0  0  0  0  0  0  0  0  0
    0.0000    0.0000    0.0000 C   0  0  0  0  0  0  0  0  0  0  0  0
    0.0000    0.0000    0.0000 C   0  0  0  0  0  0  0  0  0  0  0  0
    0.0000    0.0000    0.0000 C   0  0  0  0  0  0  0  0  0  0  0  0
    0.0000    0.0000    0.0000 C   0  0  0  0  0  0  0  0  0  0  0  0
    0.0000    0.0000    0.0000 S   0  0  0  0  0  0  0  0  0  0  0  0
    0.0000    0.0000    0.0000 C   0  0  0  0  0  0  0  0  0  0  0  0
    0.0000    0.0000    0.0000 C   0  0  0  0  0  0  0  0  0  0  0  0
    0.0000    0.0000    0.0000 S   0  0  0  0  0  0  0  0  0  0  0  0
    0.0000    0.0000    0.0000 O   0  0  0  0  0  0  0  0  0  0  0  0
    0.0000    0.0000    0.0000 O   0  0  0  0  0  0  0  0  0  0  0  0
    0.0000    0.0000    0.0000 N   0  0  0  0  0  0  0  0  0  0  0  0
  1  2  1  0
  2  3  1  0
  2  4  1  0
  4  5  1  0
  5  6  1  0
  6  7  2  0
  6  8  1  0
  8  9  1  0
  9 10  2  0
 10 11  1  0
 11 12  2  0
 12 13  1  0
 13 14  2  0
 14 15  1  0
 15 16  1  0
 16 17  2  0
 14 18  1  0
 18 19  2  0
 18 20  2  0
 18 21  1  0
 17  9  1  0
 16 12  1  0
M  END
>  <pIC50>  (232) 
8.25

>  <ChEMBL_ID>  (232) 
CHEMBL85925

>  <document_journal>  (232) 
J. Med. Chem.

>  <bao_endpoint>  (232) 
BAO_0000190

>  <potential_duplicate>  (232) 
False

>  <uo_units>  (232) 
UO_0000065

>  <canonical_smiles>  (232) 
CC(C)COC(=O)Oc1ccc2cc(sc2c1)S(=O)(=O)N

>  <parent_molecule_chembl_id>  (232) 
CHEMBL85925

>  <assay_type>  (232) 
B

>  <src_id>  (232) 
1

>  <ligand_efficiency>  (232) 
{u'le': u'0.54', u'bei': u'25.05', u'sei': u'6.24', u'lle': u'5.13'}

>  <standard_flag>  (232) 
True

>  <molecule_chembl_id>  (232) 
CHEMBL85925

>  <target_organism>  (232) 
Homo sapiens

>  <standard_units>  (232) 
nM

>  <record_id>  (232) 
154358

>  <document_chembl_id>  (232) 
CHEMBL1124376

>  <bao_format>  (232) 
BAO_0000019

>  <data_validity_description>  (232) 
None

>  <activity_id>  (232) 
1043899

>  <standard_type>  (232) 
IC50

>  <target_chembl_id>  (232) 
CHEMBL205

>  <data_validity_comment>  (232) 
None

>  <published_value>  (232) 
5.6

>  <document_year>  (232) 
1989

>  <target_pref_name>  (232) 
Carbonic anhydrase II

>  <assay_chembl_id>  (232) 
CHEMBL656570

>  <standard_relation>  (232) 
=

>  <assay_description>  (232) 
50% inhibition of human carbonic anhydrase II assayed by CO2 hydration catalyzed by human erythrocytes

>  <published_relation>  (232) 
=

>  <standard_value>  (232) 
5.6

>  <qudt_units>  (232) 
http://www.openphacts.org/units/Nanomolar

>  <target_tax_id>  (232) 
9606

>  <bao_label>  (232) 
assay format

>  <published_units>  (232) 
nM

>  <pchembl_value>  (232) 
8.25

>  <published_type>  (232) 
I50

>  <activity_comment>  (232) 
None

$$$$

     RDKit          

 18 19  0  0  0  0  0  0  0  0999 V2000
    0.0000    0.0000    0.0000 C   0  0  0  0  0  0  0  0  0  0  0  0
    0.0000    0.0000    0.0000 C   0  0  0  0  0  0  0  0  0  0  0  0
    0.0000    0.0000    0.0000 O   0  0  0  0  0  0  0  0  0  0  0  0
    0.0000    0.0000    0.0000 O   0  0  0  0  0  0  0  0  0  0  0  0
    0.0000    0.0000    0.0000 C   0  0  0  0  0  0  0  0  0  0  0  0
    0.0000    0.0000    0.0000 C   0  0  0  0  0  0  0  0  0  0  0  0
    0.0000    0.0000    0.0000 C   0  0  0  0  0  0  0  0  0  0  0  0
    0.0000    0.0000    0.0000 C   0  0  0  0  0  0  0  0  0  0  0  0
    0.0000    0.0000    0.0000 C   0  0  0  0  0  0  0  0  0  0  0  0
    0.0000    0.0000    0.0000 S   0  0  0  0  0  0  0  0  0  0  0  0
    0.0000    0.0000    0.0000 C   0  0  0  0  0  0  0  0  0  0  0  0
    0.0000    0.0000    0.0000 C   0  0  0  0  0  0  0  0  0  0  0  0
    0.0000    0.0000    0.0000 C   0  0  0  0  0  0  0  0  0  0  0  0
    0.0000    0.0000    0.0000 C   0  0  0  0  0  0  0  0  0  0  0  0
    0.0000    0.0000    0.0000 S   0  0  0  0  0  0  0  0  0  0  0  0
    0.0000    0.0000    0.0000 O   0  0  0  0  0  0  0  0  0  0  0  0
    0.0000    0.0000    0.0000 O   0  0  0  0  0  0  0  0  0  0  0  0
    0.0000    0.0000    0.0000 N   0  0  0  0  0  0  0  0  0  0  0  0
  1  2  1  0
  2  3  2  0
  2  4  1  0
  4  5  1  0
  5  6  1  0
  6  7  2  0
  7  8  1  0
  8  9  2  0
  9 10  1  0
 10 11  1  0
 11 12  2  0
 12 13  1  0
 13 14  2  0
 11 15  1  0
 15 16  2  0
 15 17  2  0
 15 18  1  0
 14  6  1  0
 13  9  1  0
M  END
>  <pIC50>  (233) 
8.0

>  <ChEMBL_ID>  (233) 
CHEMBL85470

>  <document_journal>  (233) 
J. Med. Chem.

>  <bao_endpoint>  (233) 
BAO_0000190

>  <potential_duplicate>  (233) 
False

>  <uo_units>  (233) 
UO_0000065

>  <canonical_smiles>  (233) 
CC(=O)OCc1ccc2sc(cc2c1)S(=O)(=O)N

>  <parent_molecule_chembl_id>  (233) 
CHEMBL85470

>  <assay_type>  (233) 
B

>  <src_id>  (233) 
1

>  <ligand_efficiency>  (233) 
{u'le': u'0.61', u'bei': u'28.04', u'sei': u'6.5', u'lle': u'6.7'}

>  <standard_flag>  (233) 
True

>  <molecule_chembl_id>  (233) 
CHEMBL85470

>  <target_organism>  (233) 
Homo sapiens

>  <standard_units>  (233) 
nM

>  <record_id>  (233) 
154371

>  <document_chembl_id>  (233) 
CHEMBL1124376

>  <bao_format>  (233) 
BAO_0000019

>  <data_validity_description>  (233) 
None

>  <activity_id>  (233) 
1043900

>  <standard_type>  (233) 
IC50

>  <target_chembl_id>  (233) 
CHEMBL205

>  <data_validity_comment>  (233) 
None

>  <published_value>  (233) 
10

>  <document_year>  (233) 
1989

>  <target_pref_name>  (233) 
Carbonic anhydrase II

>  <assay_chembl_id>  (233) 
CHEMBL656570

>  <standard_relation>  (233) 
=

>  <assay_description>  (233) 
50% inhibition of human carbonic anhydrase II assayed by CO2 hydration catalyzed by human erythrocytes

>  <published_relation>  (233) 
=

>  <standard_value>  (233) 
10

>  <qudt_units>  (233) 
http://www.openphacts.org/units/Nanomolar

>  <target_tax_id>  (233) 
9606

>  <bao_label>  (233) 
assay format

>  <published_units>  (233) 
nM

>  <pchembl_value>  (233) 
8

>  <published_type>  (233) 
I50

>  <activity_comment>  (233) 
None

$$$$

     RDKit          

 16 17  0  0  0  0  0  0  0  0999 V2000
    0.0000    0.0000    0.0000 C   0  0  0  0  0  0  0  0  0  0  0  0
    0.0000    0.0000    0.0000 C   0  0  0  0  0  0  0  0  0  0  0  0
    0.0000    0.0000    0.0000 O   0  0  0  0  0  0  0  0  0  0  0  0
    0.0000    0.0000    0.0000 C   0  0  0  0  0  0  0  0  0  0  0  0
    0.0000    0.0000    0.0000 C   0  0  0  0  0  0  0  0  0  0  0  0
    0.0000    0.0000    0.0000 C   0  0  0  0  0  0  0  0  0  0  0  0
    0.0000    0.0000    0.0000 C   0  0  0  0  0  0  0  0  0  0  0  0
    0.0000    0.0000    0.0000 C   0  0  0  0  0  0  0  0  0  0  0  0
    0.0000    0.0000    0.0000 C   0  0  0  0  0  0  0  0  0  0  0  0
    0.0000    0.0000    0.0000 S   0  0  0  0  0  0  0  0  0  0  0  0
    0.0000    0.0000    0.0000 C   0  0  0  0  0  0  0  0  0  0  0  0
    0.0000    0.0000    0.0000 C   0  0  0  0  0  0  0  0  0  0  0  0
    0.0000    0.0000    0.0000 S   0  0  0  0  0  0  0  0  0  0  0  0
    0.0000    0.0000    0.0000 O   0  0  0  0  0  0  0  0  0  0  0  0
    0.0000    0.0000    0.0000 O   0  0  0  0  0  0  0  0  0  0  0  0
    0.0000    0.0000    0.0000 N   0  0  0  0  0  0  0  0  0  0  0  0
  1  2  1  0
  2  3  2  0
  2  4  1  0
  4  5  2  0
  5  6  1  0
  6  7  2  0
  7  8  1  0
  8  9  2  0
  9 10  1  0
 10 11  1  0
 11 12  2  0
  9 13  1  0
 13 14  2  0
 13 15  2  0
 13 16  1  0
 12  4  1  0
 11  7  1  0
M  END
>  <pIC50>  (234) 
8.22

>  <ChEMBL_ID>  (234) 
CHEMBL86176

>  <document_journal>  (234) 
J. Med. Chem.

>  <bao_endpoint>  (234) 
BAO_0000190

>  <potential_duplicate>  (234) 
False

>  <uo_units>  (234) 
UO_0000065

>  <canonical_smiles>  (234) 
CC(=O)c1ccc2cc(sc2c1)S(=O)(=O)N

>  <parent_molecule_chembl_id>  (234) 
CHEMBL86176

>  <assay_type>  (234) 
B

>  <src_id>  (234) 
1

>  <ligand_efficiency>  (234) 
{u'le': u'0.7', u'bei': u'32.2', u'sei': u'7.22', u'lle': u'6.96'}

>  <standard_flag>  (234) 
True

>  <molecule_chembl_id>  (234) 
CHEMBL86176

>  <target_organism>  (234) 
Homo sapiens

>  <standard_units>  (234) 
nM

>  <record_id>  (234) 
154370

>  <document_chembl_id>  (234) 
CHEMBL1124376

>  <bao_format>  (234) 
BAO_0000019

>  <data_validity_description>  (234) 
None

>  <activity_id>  (234) 
1043901

>  <standard_type>  (234) 
IC50

>  <target_chembl_id>  (234) 
CHEMBL205

>  <data_validity_comment>  (234) 
None

>  <published_value>  (234) 
6

>  <document_year>  (234) 
1989

>  <target_pref_name>  (234) 
Carbonic anhydrase II

>  <assay_chembl_id>  (234) 
CHEMBL656570

>  <standard_relation>  (234) 
=

>  <assay_description>  (234) 
50% inhibition of human carbonic anhydrase II assayed by CO2 hydration catalyzed by human erythrocytes

>  <published_relation>  (234) 
=

>  <standard_value>  (234) 
6

>  <qudt_units>  (234) 
http://www.openphacts.org/units/Nanomolar

>  <target_tax_id>  (234) 
9606

>  <bao_label>  (234) 
assay format

>  <published_units>  (234) 
nM

>  <pchembl_value>  (234) 
8.22

>  <published_type>  (234) 
I50

>  <activity_comment>  (234) 
None

$$$$

     RDKit          

 15 16  0  0  0  0  0  0  0  0999 V2000
    0.0000    0.0000    0.0000 C   0  0  0  0  0  0  0  0  0  0  0  0
    0.0000    0.0000    0.0000 O   0  0  0  0  0  0  0  0  0  0  0  0
    0.0000    0.0000    0.0000 C   0  0  0  0  0  0  0  0  0  0  0  0
    0.0000    0.0000    0.0000 C   0  0  0  0  0  0  0  0  0  0  0  0
    0.0000    0.0000    0.0000 C   0  0  0  0  0  0  0  0  0  0  0  0
    0.0000    0.0000    0.0000 C   0  0  0  0  0  0  0  0  0  0  0  0
    0.0000    0.0000    0.0000 C   0  0  0  0  0  0  0  0  0  0  0  0
    0.0000    0.0000    0.0000 S   0  0  0  0  0  0  0  0  0  0  0  0
    0.0000    0.0000    0.0000 C   0  0  0  0  0  0  0  0  0  0  0  0
    0.0000    0.0000    0.0000 C   0  0  0  0  0  0  0  0  0  0  0  0
    0.0000    0.0000    0.0000 C   0  0  0  0  0  0  0  0  0  0  0  0
    0.0000    0.0000    0.0000 S   0  0  0  0  0  0  0  0  0  0  0  0
    0.0000    0.0000    0.0000 O   0  0  0  0  0  0  0  0  0  0  0  0
    0.0000    0.0000    0.0000 O   0  0  0  0  0  0  0  0  0  0  0  0
    0.0000    0.0000    0.0000 N   0  0  0  0  0  0  0  0  0  0  0  0
  1  2  1  0
  2  3  1  0
  3  4  2  0
  4  5  1  0
  5  6  2  0
  6  7  1  0
  7  8  1  0
  8  9  1  0
  9 10  2  0
 10 11  1  0
  9 12  1  0
 12 13  2  0
 12 14  2  0
 12 15  1  0
 11  3  1  0
 11  7  2  0
M  END
>  <pIC50>  (235) 
7.92

>  <ChEMBL_ID>  (235) 
CHEMBL315921

>  <document_journal>  (235) 
J. Med. Chem.

>  <bao_endpoint>  (235) 
BAO_0000190

>  <potential_duplicate>  (235) 
False

>  <uo_units>  (235) 
UO_0000065

>  <canonical_smiles>  (235) 
COc1cccc2sc(cc12)S(=O)(=O)N

>  <parent_molecule_chembl_id>  (235) 
CHEMBL315921

>  <assay_type>  (235) 
B

>  <src_id>  (235) 
1

>  <ligand_efficiency>  (235) 
{u'le': u'0.72', u'bei': u'32.56', u'sei': u'7.47', u'lle': u'6.41'}

>  <standard_flag>  (235) 
True

>  <molecule_chembl_id>  (235) 
CHEMBL315921

>  <target_organism>  (235) 
Homo sapiens

>  <standard_units>  (235) 
nM

>  <record_id>  (235) 
154365

>  <document_chembl_id>  (235) 
CHEMBL1124376

>  <bao_format>  (235) 
BAO_0000019

>  <data_validity_description>  (235) 
None

>  <activity_id>  (235) 
1046497

>  <standard_type>  (235) 
IC50

>  <target_chembl_id>  (235) 
CHEMBL205

>  <data_validity_comment>  (235) 
None

>  <published_value>  (235) 
12

>  <document_year>  (235) 
1989

>  <target_pref_name>  (235) 
Carbonic anhydrase II

>  <assay_chembl_id>  (235) 
CHEMBL656570

>  <standard_relation>  (235) 
=

>  <assay_description>  (235) 
50% inhibition of human carbonic anhydrase II assayed by CO2 hydration catalyzed by human erythrocytes

>  <published_relation>  (235) 
=

>  <standard_value>  (235) 
12

>  <qudt_units>  (235) 
http://www.openphacts.org/units/Nanomolar

>  <target_tax_id>  (235) 
9606

>  <bao_label>  (235) 
assay format

>  <published_units>  (235) 
nM

>  <pchembl_value>  (235) 
7.92

>  <published_type>  (235) 
I50

>  <activity_comment>  (235) 
None

$$$$

     RDKit          

 17 18  0  0  0  0  0  0  0  0999 V2000
    0.0000    0.0000    0.0000 C   0  0  0  0  0  0  0  0  0  0  0  0
    0.0000    0.0000    0.0000 N   0  0  0  0  0  0  0  0  0  0  0  0
    0.0000    0.0000    0.0000 C   0  0  0  0  0  0  0  0  0  0  0  0
    0.0000    0.0000    0.0000 C   0  0  0  0  0  0  0  0  0  0  0  0
    0.0000    0.0000    0.0000 C   0  0  0  0  0  0  0  0  0  0  0  0
    0.0000    0.0000    0.0000 C   0  0  0  0  0  0  0  0  0  0  0  0
    0.0000    0.0000    0.0000 C   0  0  0  0  0  0  0  0  0  0  0  0
    0.0000    0.0000    0.0000 C   0  0  0  0  0  0  0  0  0  0  0  0
    0.0000    0.0000    0.0000 S   0  0  0  0  0  0  0  0  0  0  0  0
    0.0000    0.0000    0.0000 C   0  0  0  0  0  0  0  0  0  0  0  0
    0.0000    0.0000    0.0000 C   0  0  0  0  0  0  0  0  0  0  0  0
    0.0000    0.0000    0.0000 C   0  0  0  0  0  0  0  0  0  0  0  0
    0.0000    0.0000    0.0000 C   0  0  0  0  0  0  0  0  0  0  0  0
    0.0000    0.0000    0.0000 S   0  0  0  0  0  0  0  0  0  0  0  0
    0.0000    0.0000    0.0000 O   0  0  0  0  0  0  0  0  0  0  0  0
    0.0000    0.0000    0.0000 O   0  0  0  0  0  0  0  0  0  0  0  0
    0.0000    0.0000    0.0000 N   0  0  0  0  0  0  0  0  0  0  0  0
  1  2  1  0
  2  3  1  0
  2  4  1  0
  4  5  1  0
  5  6  2  0
  6  7  1  0
  7  8  2  0
  8  9  1  0
  9 10  1  0
 10 11  2  0
 11 12  1  0
 12 13  2  0
 10 14  1  0
 14 15  2  0
 14 16  2  0
 14 17  1  0
 13  5  1  0
 12  8  1  0
M  END
>  <pIC50>  (236) 
7.92

>  <ChEMBL_ID>  (236) 
CHEMBL313026

>  <document_journal>  (236) 
J. Med. Chem.

>  <bao_endpoint>  (236) 
BAO_0000190

>  <potential_duplicate>  (236) 
False

>  <uo_units>  (236) 
UO_0000065

>  <canonical_smiles>  (236) 
CN(C)Cc1ccc2sc(cc2c1)S(=O)(=O)N

>  <parent_molecule_chembl_id>  (236) 
CHEMBL313026

>  <assay_type>  (236) 
B

>  <src_id>  (236) 
1

>  <ligand_efficiency>  (236) 
{u'le': u'0.64', u'bei': u'29.3', u'sei': u'7.92', u'lle': u'6.32'}

>  <standard_flag>  (236) 
True

>  <molecule_chembl_id>  (236) 
CHEMBL313026

>  <target_organism>  (236) 
Homo sapiens

>  <standard_units>  (236) 
nM

>  <record_id>  (236) 
154374

>  <document_chembl_id>  (236) 
CHEMBL1124376

>  <bao_format>  (236) 
BAO_0000019

>  <data_validity_description>  (236) 
None

>  <activity_id>  (236) 
1046498

>  <standard_type>  (236) 
IC50

>  <target_chembl_id>  (236) 
CHEMBL205

>  <data_validity_comment>  (236) 
None

>  <published_value>  (236) 
12

>  <document_year>  (236) 
1989

>  <target_pref_name>  (236) 
Carbonic anhydrase II

>  <assay_chembl_id>  (236) 
CHEMBL656570

>  <standard_relation>  (236) 
=

>  <assay_description>  (236) 
50% inhibition of human carbonic anhydrase II assayed by CO2 hydration catalyzed by human erythrocytes

>  <published_relation>  (236) 
=

>  <standard_value>  (236) 
12

>  <qudt_units>  (236) 
http://www.openphacts.org/units/Nanomolar

>  <target_tax_id>  (236) 
9606

>  <bao_label>  (236) 
assay format

>  <published_units>  (236) 
nM

>  <pchembl_value>  (236) 
7.92

>  <published_type>  (236) 
I50

>  <activity_comment>  (236) 
None

$$$$

     RDKit          

 14 15  0  0  0  0  0  0  0  0999 V2000
    0.0000    0.0000    0.0000 N   0  0  0  0  0  0  0  0  0  0  0  0
    0.0000    0.0000    0.0000 S   0  0  0  0  0  0  0  0  0  0  0  0
    0.0000    0.0000    0.0000 O   0  0  0  0  0  0  0  0  0  0  0  0
    0.0000    0.0000    0.0000 O   0  0  0  0  0  0  0  0  0  0  0  0
    0.0000    0.0000    0.0000 C   0  0  0  0  0  0  0  0  0  0  0  0
    0.0000    0.0000    0.0000 C   0  0  0  0  0  0  0  0  0  0  0  0
    0.0000    0.0000    0.0000 C   0  0  0  0  0  0  0  0  0  0  0  0
    0.0000    0.0000    0.0000 C   0  0  0  0  0  0  0  0  0  0  0  0
    0.0000    0.0000    0.0000 O   0  0  0  0  0  0  0  0  0  0  0  0
    0.0000    0.0000    0.0000 C   0  0  0  0  0  0  0  0  0  0  0  0
    0.0000    0.0000    0.0000 C   0  0  0  0  0  0  0  0  0  0  0  0
    0.0000    0.0000    0.0000 C   0  0  0  0  0  0  0  0  0  0  0  0
    0.0000    0.0000    0.0000 C   0  0  0  0  0  0  0  0  0  0  0  0
    0.0000    0.0000    0.0000 S   0  0  0  0  0  0  0  0  0  0  0  0
  1  2  1  0
  2  3  2  0
  2  4  2  0
  2  5  1  0
  5  6  2  0
  6  7  1  0
  7  8  2  0
  8  9  1  0
  8 10  1  0
 10 11  2  0
 11 12  1  0
 12 13  2  0
 13 14  1  0
 14  5  1  0
 13  7  1  0
M  END
>  <pIC50>  (237) 
7.92

>  <ChEMBL_ID>  (237) 
CHEMBL87497

>  <document_journal>  (237) 
J. Med. Chem.

>  <bao_endpoint>  (237) 
BAO_0000190

>  <potential_duplicate>  (237) 
False

>  <uo_units>  (237) 
UO_0000065

>  <canonical_smiles>  (237) 
NS(=O)(=O)c1cc2c(O)cccc2s1

>  <parent_molecule_chembl_id>  (237) 
CHEMBL87497

>  <assay_type>  (237) 
B

>  <src_id>  (237) 
1

>  <ligand_efficiency>  (237) 
{u'le': u'0.77', u'bei': u'34.55', u'sei': u'6.77', u'lle': u'6.64'}

>  <standard_flag>  (237) 
True

>  <molecule_chembl_id>  (237) 
CHEMBL87497

>  <target_organism>  (237) 
Homo sapiens

>  <standard_units>  (237) 
nM

>  <record_id>  (237) 
154363

>  <document_chembl_id>  (237) 
CHEMBL1124376

>  <bao_format>  (237) 
BAO_0000019

>  <data_validity_description>  (237) 
None

>  <activity_id>  (237) 
1048878

>  <standard_type>  (237) 
IC50

>  <target_chembl_id>  (237) 
CHEMBL205

>  <data_validity_comment>  (237) 
None

>  <published_value>  (237) 
12

>  <document_year>  (237) 
1989

>  <target_pref_name>  (237) 
Carbonic anhydrase II

>  <assay_chembl_id>  (237) 
CHEMBL656570

>  <standard_relation>  (237) 
=

>  <assay_description>  (237) 
50% inhibition of human carbonic anhydrase II assayed by CO2 hydration catalyzed by human erythrocytes

>  <published_relation>  (237) 
=

>  <standard_value>  (237) 
12

>  <qudt_units>  (237) 
http://www.openphacts.org/units/Nanomolar

>  <target_tax_id>  (237) 
9606

>  <bao_label>  (237) 
assay format

>  <published_units>  (237) 
nM

>  <pchembl_value>  (237) 
7.92

>  <published_type>  (237) 
I50

>  <activity_comment>  (237) 
None

$$$$

     RDKit          

 18 19  0  0  0  0  0  0  0  0999 V2000
    0.0000    0.0000    0.0000 N   0  0  0  0  0  0  0  0  0  0  0  0
    0.0000    0.0000    0.0000 S   0  0  0  0  0  0  0  0  0  0  0  0
    0.0000    0.0000    0.0000 O   0  0  0  0  0  0  0  0  0  0  0  0
    0.0000    0.0000    0.0000 O   0  0  0  0  0  0  0  0  0  0  0  0
    0.0000    0.0000    0.0000 C   0  0  0  0  0  0  0  0  0  0  0  0
    0.0000    0.0000    0.0000 C   0  0  0  0  0  0  0  0  0  0  0  0
    0.0000    0.0000    0.0000 C   0  0  0  0  0  0  0  0  0  0  0  0
    0.0000    0.0000    0.0000 C   0  0  0  0  0  0  0  0  0  0  0  0
    0.0000    0.0000    0.0000 C   0  0  0  0  0  0  0  0  0  0  0  0
    0.0000    0.0000    0.0000 C   0  0  0  0  0  0  0  0  0  0  0  0
    0.0000    0.0000    0.0000 O   0  0  0  0  0  0  0  0  0  0  0  0
    0.0000    0.0000    0.0000 C   0  0  0  0  0  0  0  0  0  0  0  0
    0.0000    0.0000    0.0000 C   0  0  0  0  0  0  0  0  0  0  0  0
    0.0000    0.0000    0.0000 O   0  0  0  0  0  0  0  0  0  0  0  0
    0.0000    0.0000    0.0000 O   0  0  0  0  0  0  0  0  0  0  0  0
    0.0000    0.0000    0.0000 C   0  0  0  0  0  0  0  0  0  0  0  0
    0.0000    0.0000    0.0000 C   0  0  0  0  0  0  0  0  0  0  0  0
    0.0000    0.0000    0.0000 S   0  0  0  0  0  0  0  0  0  0  0  0
  1  2  1  0
  2  3  2  0
  2  4  2  0
  2  5  1  0
  5  6  2  0
  6  7  1  0
  7  8  2  0
  8  9  1  0
  9 10  2  0
 10 11  1  0
 11 12  1  0
 12 13  1  0
 13 14  2  0
 13 15  1  0
 10 16  1  0
 16 17  2  0
 17 18  1  0
 18  5  1  0
 17  7  1  0
M  END
>  <pIC50>  (238) 
7.85

>  <ChEMBL_ID>  (238) 
CHEMBL82806

>  <document_journal>  (238) 
J. Med. Chem.

>  <bao_endpoint>  (238) 
BAO_0000190

>  <potential_duplicate>  (238) 
False

>  <uo_units>  (238) 
UO_0000065

>  <canonical_smiles>  (238) 
NS(=O)(=O)c1cc2ccc(OCC(=O)O)cc2s1

>  <parent_molecule_chembl_id>  (238) 
CHEMBL82806

>  <assay_type>  (238) 
B

>  <src_id>  (238) 
1

>  <ligand_efficiency>  (238) 
{u'le': u'0.6', u'bei': u'27.34', u'sei': u'5.48', u'lle': u'6.86'}

>  <standard_flag>  (238) 
True

>  <molecule_chembl_id>  (238) 
CHEMBL82806

>  <target_organism>  (238) 
Homo sapiens

>  <standard_units>  (238) 
nM

>  <record_id>  (238) 
154354

>  <document_chembl_id>  (238) 
CHEMBL1124376

>  <bao_format>  (238) 
BAO_0000019

>  <data_validity_description>  (238) 
None

>  <activity_id>  (238) 
1051264

>  <standard_type>  (238) 
IC50

>  <target_chembl_id>  (238) 
CHEMBL205

>  <data_validity_comment>  (238) 
None

>  <published_value>  (238) 
14

>  <document_year>  (238) 
1989

>  <target_pref_name>  (238) 
Carbonic anhydrase II

>  <assay_chembl_id>  (238) 
CHEMBL656570

>  <standard_relation>  (238) 
=

>  <assay_description>  (238) 
50% inhibition of human carbonic anhydrase II assayed by CO2 hydration catalyzed by human erythrocytes

>  <published_relation>  (238) 
=

>  <standard_value>  (238) 
14

>  <qudt_units>  (238) 
http://www.openphacts.org/units/Nanomolar

>  <target_tax_id>  (238) 
9606

>  <bao_label>  (238) 
assay format

>  <published_units>  (238) 
nM

>  <pchembl_value>  (238) 
7.85

>  <published_type>  (238) 
I50

>  <activity_comment>  (238) 
None

$$$$

     RDKit          

 13 14  0  0  0  0  0  0  0  0999 V2000
    0.0000    0.0000    0.0000 N   0  0  0  0  0  0  0  0  0  0  0  0
    0.0000    0.0000    0.0000 S   0  0  0  0  0  0  0  0  0  0  0  0
    0.0000    0.0000    0.0000 O   0  0  0  0  0  0  0  0  0  0  0  0
    0.0000    0.0000    0.0000 O   0  0  0  0  0  0  0  0  0  0  0  0
    0.0000    0.0000    0.0000 C   0  0  0  0  0  0  0  0  0  0  0  0
    0.0000    0.0000    0.0000 C   0  0  0  0  0  0  0  0  0  0  0  0
    0.0000    0.0000    0.0000 C   0  0  0  0  0  0  0  0  0  0  0  0
    0.0000    0.0000    0.0000 C   0  0  0  0  0  0  0  0  0  0  0  0
    0.0000    0.0000    0.0000 C   0  0  0  0  0  0  0  0  0  0  0  0
    0.0000    0.0000    0.0000 C   0  0  0  0  0  0  0  0  0  0  0  0
    0.0000    0.0000    0.0000 C   0  0  0  0  0  0  0  0  0  0  0  0
    0.0000    0.0000    0.0000 C   0  0  0  0  0  0  0  0  0  0  0  0
    0.0000    0.0000    0.0000 S   0  0  0  0  0  0  0  0  0  0  0  0
  1  2  1  0
  2  3  2  0
  2  4  2  0
  2  5  1  0
  5  6  2  0
  6  7  1  0
  7  8  2  0
  8  9  1  0
  9 10  2  0
 10 11  1  0
 11 12  2  0
 12 13  1  0
 13  5  1  0
 12  7  1  0
M  END
>  <pIC50>  (239) 
8.28

>  <ChEMBL_ID>  (239) 
CHEMBL313338

>  <document_journal>  (239) 
J. Med. Chem.

>  <bao_endpoint>  (239) 
BAO_0000190

>  <potential_duplicate>  (239) 
False

>  <uo_units>  (239) 
UO_0000065

>  <canonical_smiles>  (239) 
NS(=O)(=O)c1cc2ccccc2s1

>  <parent_molecule_chembl_id>  (239) 
CHEMBL313338

>  <assay_type>  (239) 
B

>  <src_id>  (239) 
1

>  <ligand_efficiency>  (239) 
{u'le': u'0.87', u'bei': u'38.84', u'sei': u'8.56', u'lle': u'6.76'}

>  <standard_flag>  (239) 
True

>  <molecule_chembl_id>  (239) 
CHEMBL313338

>  <target_organism>  (239) 
Homo sapiens

>  <standard_units>  (239) 
nM

>  <record_id>  (239) 
154366

>  <document_chembl_id>  (239) 
CHEMBL1124376

>  <bao_format>  (239) 
BAO_0000019

>  <data_validity_description>  (239) 
None

>  <activity_id>  (239) 
1054923

>  <standard_type>  (239) 
IC50

>  <target_chembl_id>  (239) 
CHEMBL205

>  <data_validity_comment>  (239) 
None

>  <published_value>  (239) 
5.2

>  <document_year>  (239) 
1989

>  <target_pref_name>  (239) 
Carbonic anhydrase II

>  <assay_chembl_id>  (239) 
CHEMBL656570

>  <standard_relation>  (239) 
=

>  <assay_description>  (239) 
50% inhibition of human carbonic anhydrase II assayed by CO2 hydration catalyzed by human erythrocytes

>  <published_relation>  (239) 
=

>  <standard_value>  (239) 
5.2

>  <qudt_units>  (239) 
http://www.openphacts.org/units/Nanomolar

>  <target_tax_id>  (239) 
9606

>  <bao_label>  (239) 
assay format

>  <published_units>  (239) 
nM

>  <pchembl_value>  (239) 
8.28

>  <published_type>  (239) 
I50

>  <activity_comment>  (239) 
None

$$$$

     RDKit          

 17 18  0  0  0  0  0  0  0  0999 V2000
    0.0000    0.0000    0.0000 C   0  0  0  0  0  0  0  0  0  0  0  0
    0.0000    0.0000    0.0000 C   0  0  0  0  0  0  0  0  0  0  0  0
    0.0000    0.0000    0.0000 O   0  0  0  0  0  0  0  0  0  0  0  0
    0.0000    0.0000    0.0000 N   0  0  0  0  0  0  0  0  0  0  0  0
    0.0000    0.0000    0.0000 C   0  0  0  0  0  0  0  0  0  0  0  0
    0.0000    0.0000    0.0000 C   0  0  0  0  0  0  0  0  0  0  0  0
    0.0000    0.0000    0.0000 C   0  0  0  0  0  0  0  0  0  0  0  0
    0.0000    0.0000    0.0000 C   0  0  0  0  0  0  0  0  0  0  0  0
    0.0000    0.0000    0.0000 C   0  0  0  0  0  0  0  0  0  0  0  0
    0.0000    0.0000    0.0000 C   0  0  0  0  0  0  0  0  0  0  0  0
    0.0000    0.0000    0.0000 S   0  0  0  0  0  0  0  0  0  0  0  0
    0.0000    0.0000    0.0000 C   0  0  0  0  0  0  0  0  0  0  0  0
    0.0000    0.0000    0.0000 C   0  0  0  0  0  0  0  0  0  0  0  0
    0.0000    0.0000    0.0000 S   0  0  0  0  0  0  0  0  0  0  0  0
    0.0000    0.0000    0.0000 O   0  0  0  0  0  0  0  0  0  0  0  0
    0.0000    0.0000    0.0000 O   0  0  0  0  0  0  0  0  0  0  0  0
    0.0000    0.0000    0.0000 N   0  0  0  0  0  0  0  0  0  0  0  0
  1  2  1  0
  2  3  2  0
  2  4  1  0
  4  5  1  0
  5  6  2  0
  6  7  1  0
  7  8  2  0
  8  9  1  0
  9 10  2  0
 10 11  1  0
 11 12  1  0
 12 13  2  0
 10 14  1  0
 14 15  2  0
 14 16  2  0
 14 17  1  0
 13  5  1  0
 12  8  1  0
M  END
>  <pIC50>  (240) 
8.32

>  <ChEMBL_ID>  (240) 
CHEMBL87444

>  <document_journal>  (240) 
J. Med. Chem.

>  <bao_endpoint>  (240) 
BAO_0000190

>  <potential_duplicate>  (240) 
False

>  <uo_units>  (240) 
UO_0000065

>  <canonical_smiles>  (240) 
CC(=O)Nc1ccc2cc(sc2c1)S(=O)(=O)N

>  <parent_molecule_chembl_id>  (240) 
CHEMBL87444

>  <assay_type>  (240) 
B

>  <src_id>  (240) 
1

>  <ligand_efficiency>  (240) 
{u'le': u'0.67', u'bei': u'30.77', u'sei': u'6.61', u'lle': u'7.68'}

>  <standard_flag>  (240) 
True

>  <molecule_chembl_id>  (240) 
CHEMBL87444

>  <target_organism>  (240) 
Homo sapiens

>  <standard_units>  (240) 
nM

>  <record_id>  (240) 
154369

>  <document_chembl_id>  (240) 
CHEMBL1124376

>  <bao_format>  (240) 
BAO_0000019

>  <data_validity_description>  (240) 
None

>  <activity_id>  (240) 
1054924

>  <standard_type>  (240) 
IC50

>  <target_chembl_id>  (240) 
CHEMBL205

>  <data_validity_comment>  (240) 
None

>  <published_value>  (240) 
4.8

>  <document_year>  (240) 
1989

>  <target_pref_name>  (240) 
Carbonic anhydrase II

>  <assay_chembl_id>  (240) 
CHEMBL656570

>  <standard_relation>  (240) 
=

>  <assay_description>  (240) 
50% inhibition of human carbonic anhydrase II assayed by CO2 hydration catalyzed by human erythrocytes

>  <published_relation>  (240) 
=

>  <standard_value>  (240) 
4.8

>  <qudt_units>  (240) 
http://www.openphacts.org/units/Nanomolar

>  <target_tax_id>  (240) 
9606

>  <bao_label>  (240) 
assay format

>  <published_units>  (240) 
nM

>  <pchembl_value>  (240) 
8.32

>  <published_type>  (240) 
I50

>  <activity_comment>  (240) 
None

$$$$

     RDKit          

 20 21  0  0  0  0  0  0  0  0999 V2000
    0.0000    0.0000    0.0000 C   0  0  0  0  0  0  0  0  0  0  0  0
    0.0000    0.0000    0.0000 C   0  0  0  0  0  0  0  0  0  0  0  0
    0.0000    0.0000    0.0000 C   0  0  0  0  0  0  0  0  0  0  0  0
    0.0000    0.0000    0.0000 C   0  0  0  0  0  0  0  0  0  0  0  0
    0.0000    0.0000    0.0000 C   0  0  0  0  0  0  0  0  0  0  0  0
    0.0000    0.0000    0.0000 O   0  0  0  0  0  0  0  0  0  0  0  0
    0.0000    0.0000    0.0000 O   0  0  0  0  0  0  0  0  0  0  0  0
    0.0000    0.0000    0.0000 C   0  0  0  0  0  0  0  0  0  0  0  0
    0.0000    0.0000    0.0000 C   0  0  0  0  0  0  0  0  0  0  0  0
    0.0000    0.0000    0.0000 C   0  0  0  0  0  0  0  0  0  0  0  0
    0.0000    0.0000    0.0000 C   0  0  0  0  0  0  0  0  0  0  0  0
    0.0000    0.0000    0.0000 C   0  0  0  0  0  0  0  0  0  0  0  0
    0.0000    0.0000    0.0000 C   0  0  0  0  0  0  0  0  0  0  0  0
    0.0000    0.0000    0.0000 S   0  0  0  0  0  0  0  0  0  0  0  0
    0.0000    0.0000    0.0000 C   0  0  0  0  0  0  0  0  0  0  0  0
    0.0000    0.0000    0.0000 C   0  0  0  0  0  0  0  0  0  0  0  0
    0.0000    0.0000    0.0000 S   0  0  0  0  0  0  0  0  0  0  0  0
    0.0000    0.0000    0.0000 O   0  0  0  0  0  0  0  0  0  0  0  0
    0.0000    0.0000    0.0000 O   0  0  0  0  0  0  0  0  0  0  0  0
    0.0000    0.0000    0.0000 N   0  0  0  0  0  0  0  0  0  0  0  0
  1  2  1  0
  2  3  1  0
  2  4  1  0
  2  5  1  0
  5  6  2  0
  5  7  1  0
  7  8  1  0
  8  9  2  0
  9 10  1  0
 10 11  2  0
 11 12  1  0
 12 13  2  0
 13 14  1  0
 14 15  1  0
 15 16  2  0
 13 17  1  0
 17 18  2  0
 17 19  2  0
 17 20  1  0
 16  8  1  0
 15 11  1  0
M  END
>  <pIC50>  (241) 
8.59

>  <ChEMBL_ID>  (241) 
CHEMBL83144

>  <document_journal>  (241) 
J. Med. Chem.

>  <bao_endpoint>  (241) 
BAO_0000190

>  <potential_duplicate>  (241) 
False

>  <uo_units>  (241) 
UO_0000065

>  <canonical_smiles>  (241) 
CC(C)(C)C(=O)Oc1ccc2cc(sc2c1)S(=O)(=O)N

>  <parent_molecule_chembl_id>  (241) 
CHEMBL83144

>  <assay_type>  (241) 
B

>  <src_id>  (241) 
1

>  <ligand_efficiency>  (241) 
{u'le': u'0.59', u'bei': u'27.39', u'sei': u'6.98', u'lle': u'5.75'}

>  <standard_flag>  (241) 
True

>  <molecule_chembl_id>  (241) 
CHEMBL83144

>  <target_organism>  (241) 
Homo sapiens

>  <standard_units>  (241) 
nM

>  <record_id>  (241) 
154347

>  <document_chembl_id>  (241) 
CHEMBL1124376

>  <bao_format>  (241) 
BAO_0000357

>  <data_validity_description>  (241) 
None

>  <activity_id>  (241) 
1057514

>  <standard_type>  (241) 
IC50

>  <target_chembl_id>  (241) 
CHEMBL205

>  <data_validity_comment>  (241) 
None

>  <published_value>  (241) 
2.6

>  <document_year>  (241) 
1989

>  <target_pref_name>  (241) 
Carbonic anhydrase II

>  <assay_chembl_id>  (241) 
CHEMBL656572

>  <standard_relation>  (241) 
=

>  <assay_description>  (241) 
Concentration of inhibitor required to reduce the rate of carbonic anhydrase II catalyzed CO2 hydration by 50%. 

>  <published_relation>  (241) 
=

>  <standard_value>  (241) 
2.6

>  <qudt_units>  (241) 
http://www.openphacts.org/units/Nanomolar

>  <target_tax_id>  (241) 
9606

>  <bao_label>  (241) 
single protein format

>  <published_units>  (241) 
nM

>  <pchembl_value>  (241) 
8.59

>  <published_type>  (241) 
I50

>  <activity_comment>  (241) 
None

$$$$

     RDKit          

 15 16  0  0  0  0  0  0  0  0999 V2000
    0.0000    0.0000    0.0000 C   0  0  0  0  0  0  0  0  0  0  0  0
    0.0000    0.0000    0.0000 O   0  0  0  0  0  0  0  0  0  0  0  0
    0.0000    0.0000    0.0000 C   0  0  0  0  0  0  0  0  0  0  0  0
    0.0000    0.0000    0.0000 C   0  0  0  0  0  0  0  0  0  0  0  0
    0.0000    0.0000    0.0000 C   0  0  0  0  0  0  0  0  0  0  0  0
    0.0000    0.0000    0.0000 C   0  0  0  0  0  0  0  0  0  0  0  0
    0.0000    0.0000    0.0000 C   0  0  0  0  0  0  0  0  0  0  0  0
    0.0000    0.0000    0.0000 C   0  0  0  0  0  0  0  0  0  0  0  0
    0.0000    0.0000    0.0000 C   0  0  0  0  0  0  0  0  0  0  0  0
    0.0000    0.0000    0.0000 S   0  0  0  0  0  0  0  0  0  0  0  0
    0.0000    0.0000    0.0000 C   0  0  0  0  0  0  0  0  0  0  0  0
    0.0000    0.0000    0.0000 S   0  0  0  0  0  0  0  0  0  0  0  0
    0.0000    0.0000    0.0000 O   0  0  0  0  0  0  0  0  0  0  0  0
    0.0000    0.0000    0.0000 O   0  0  0  0  0  0  0  0  0  0  0  0
    0.0000    0.0000    0.0000 N   0  0  0  0  0  0  0  0  0  0  0  0
  1  2  1  0
  2  3  1  0
  3  4  2  0
  4  5  1  0
  5  6  2  0
  6  7  1  0
  7  8  1  0
  8  9  2  0
  9 10  1  0
 10 11  1  0
  9 12  1  0
 12 13  2  0
 12 14  2  0
 12 15  1  0
 11  3  1  0
 11  7  2  0
M  END
>  <pIC50>  (242) 
7.3

>  <ChEMBL_ID>  (242) 
CHEMBL82865

>  <document_journal>  (242) 
J. Med. Chem.

>  <bao_endpoint>  (242) 
BAO_0000190

>  <potential_duplicate>  (242) 
False

>  <uo_units>  (242) 
UO_0000065

>  <canonical_smiles>  (242) 
COc1cccc2cc(sc12)S(=O)(=O)N

>  <parent_molecule_chembl_id>  (242) 
CHEMBL82865

>  <assay_type>  (242) 
B

>  <src_id>  (242) 
1

>  <ligand_efficiency>  (242) 
{u'le': u'0.66', u'bei': u'30.01', u'sei': u'6.89', u'lle': u'5.79'}

>  <standard_flag>  (242) 
True

>  <molecule_chembl_id>  (242) 
CHEMBL82865

>  <target_organism>  (242) 
Homo sapiens

>  <standard_units>  (242) 
nM

>  <record_id>  (242) 
154361

>  <document_chembl_id>  (242) 
CHEMBL1124376

>  <bao_format>  (242) 
BAO_0000019

>  <data_validity_description>  (242) 
None

>  <activity_id>  (242) 
1059882

>  <standard_type>  (242) 
IC50

>  <target_chembl_id>  (242) 
CHEMBL205

>  <data_validity_comment>  (242) 
None

>  <published_value>  (242) 
50

>  <document_year>  (242) 
1989

>  <target_pref_name>  (242) 
Carbonic anhydrase II

>  <assay_chembl_id>  (242) 
CHEMBL656570

>  <standard_relation>  (242) 
=

>  <assay_description>  (242) 
50% inhibition of human carbonic anhydrase II assayed by CO2 hydration catalyzed by human erythrocytes

>  <published_relation>  (242) 
=

>  <standard_value>  (242) 
50

>  <qudt_units>  (242) 
http://www.openphacts.org/units/Nanomolar

>  <target_tax_id>  (242) 
9606

>  <bao_label>  (242) 
assay format

>  <published_units>  (242) 
nM

>  <pchembl_value>  (242) 
7.3

>  <published_type>  (242) 
I50

>  <activity_comment>  (242) 
None

$$$$

     RDKit          

 20 21  0  0  0  0  0  0  0  0999 V2000
    0.0000    0.0000    0.0000 C   0  0  0  0  0  0  0  0  0  0  0  0
    0.0000    0.0000    0.0000 N   0  0  0  0  0  0  0  0  0  0  0  0
    0.0000    0.0000    0.0000 C   0  0  0  0  0  0  0  0  0  0  0  0
    0.0000    0.0000    0.0000 C   0  0  0  0  0  0  0  0  0  0  0  0
    0.0000    0.0000    0.0000 C   0  0  0  0  0  0  0  0  0  0  0  0
    0.0000    0.0000    0.0000 S   0  0  0  0  0  0  0  0  0  0  0  0
    0.0000    0.0000    0.0000 C   0  0  0  0  0  0  0  0  0  0  0  0
    0.0000    0.0000    0.0000 C   0  0  0  0  0  0  0  0  0  0  0  0
    0.0000    0.0000    0.0000 C   0  0  0  0  0  0  0  0  0  0  0  0
    0.0000    0.0000    0.0000 C   0  0  0  0  0  0  0  0  0  0  0  0
    0.0000    0.0000    0.0000 C   0  0  0  0  0  0  0  0  0  0  0  0
    0.0000    0.0000    0.0000 S   0  0  0  0  0  0  0  0  0  0  0  0
    0.0000    0.0000    0.0000 C   0  0  0  0  0  0  0  0  0  0  0  0
    0.0000    0.0000    0.0000 C   0  0  0  0  0  0  0  0  0  0  0  0
    0.0000    0.0000    0.0000 C   0  0  0  0  0  0  0  0  0  0  0  0
    0.0000    0.0000    0.0000 C   0  0  0  0  0  0  0  0  0  0  0  0
    0.0000    0.0000    0.0000 S   0  0  0  0  0  0  0  0  0  0  0  0
    0.0000    0.0000    0.0000 O   0  0  0  0  0  0  0  0  0  0  0  0
    0.0000    0.0000    0.0000 O   0  0  0  0  0  0  0  0  0  0  0  0
    0.0000    0.0000    0.0000 N   0  0  0  0  0  0  0  0  0  0  0  0
  1  2  1  0
  2  3  1  0
  2  4  1  0
  4  5  1  0
  5  6  1  0
  6  7  1  0
  7  8  1  0
  8  9  2  0
  9 10  1  0
 10 11  2  0
 11 12  1  0
 12 13  1  0
 13 14  2  0
 14 15  1  0
 15 16  2  0
 13 17  1  0
 17 18  2  0
 17 19  2  0
 17 20  1  0
 16  8  1  0
 15 11  1  0
M  END
>  <pIC50>  (243) 
7.82

>  <ChEMBL_ID>  (243) 
CHEMBL83629

>  <document_journal>  (243) 
J. Med. Chem.

>  <bao_endpoint>  (243) 
BAO_0000190

>  <potential_duplicate>  (243) 
False

>  <uo_units>  (243) 
UO_0000065

>  <canonical_smiles>  (243) 
CN(C)CCSCc1ccc2sc(cc2c1)S(=O)(=O)N

>  <parent_molecule_chembl_id>  (243) 
CHEMBL83629

>  <assay_type>  (243) 
B

>  <src_id>  (243) 
1

>  <ligand_efficiency>  (243) 
{u'le': u'0.53', u'bei': u'23.67', u'sei': u'6.24', u'lle': u'5.61'}

>  <standard_flag>  (243) 
True

>  <molecule_chembl_id>  (243) 
CHEMBL83629

>  <target_organism>  (243) 
Homo sapiens

>  <standard_units>  (243) 
nM

>  <record_id>  (243) 
154373

>  <document_chembl_id>  (243) 
CHEMBL1124376

>  <bao_format>  (243) 
BAO_0000019

>  <data_validity_description>  (243) 
None

>  <activity_id>  (243) 
1061132

>  <standard_type>  (243) 
IC50

>  <target_chembl_id>  (243) 
CHEMBL205

>  <data_validity_comment>  (243) 
None

>  <published_value>  (243) 
15

>  <document_year>  (243) 
1989

>  <target_pref_name>  (243) 
Carbonic anhydrase II

>  <assay_chembl_id>  (243) 
CHEMBL656570

>  <standard_relation>  (243) 
=

>  <assay_description>  (243) 
50% inhibition of human carbonic anhydrase II assayed by CO2 hydration catalyzed by human erythrocytes

>  <published_relation>  (243) 
=

>  <standard_value>  (243) 
15

>  <qudt_units>  (243) 
http://www.openphacts.org/units/Nanomolar

>  <target_tax_id>  (243) 
9606

>  <bao_label>  (243) 
assay format

>  <published_units>  (243) 
nM

>  <pchembl_value>  (243) 
7.82

>  <published_type>  (243) 
I50

>  <activity_comment>  (243) 
None

$$$$

     RDKit          

 14 15  0  0  0  0  0  0  0  0999 V2000
    0.0000    0.0000    0.0000 N   0  0  0  0  0  0  0  0  0  0  0  0
    0.0000    0.0000    0.0000 S   0  0  0  0  0  0  0  0  0  0  0  0
    0.0000    0.0000    0.0000 O   0  0  0  0  0  0  0  0  0  0  0  0
    0.0000    0.0000    0.0000 O   0  0  0  0  0  0  0  0  0  0  0  0
    0.0000    0.0000    0.0000 C   0  0  0  0  0  0  0  0  0  0  0  0
    0.0000    0.0000    0.0000 C   0  0  0  0  0  0  0  0  0  0  0  0
    0.0000    0.0000    0.0000 C   0  0  0  0  0  0  0  0  0  0  0  0
    0.0000    0.0000    0.0000 C   0  0  0  0  0  0  0  0  0  0  0  0
    0.0000    0.0000    0.0000 C   0  0  0  0  0  0  0  0  0  0  0  0
    0.0000    0.0000    0.0000 C   0  0  0  0  0  0  0  0  0  0  0  0
    0.0000    0.0000    0.0000 C   0  0  0  0  0  0  0  0  0  0  0  0
    0.0000    0.0000    0.0000 O   0  0  0  0  0  0  0  0  0  0  0  0
    0.0000    0.0000    0.0000 C   0  0  0  0  0  0  0  0  0  0  0  0
    0.0000    0.0000    0.0000 S   0  0  0  0  0  0  0  0  0  0  0  0
  1  2  1  0
  2  3  2  0
  2  4  2  0
  2  5  1  0
  5  6  2  0
  6  7  1  0
  7  8  2  0
  8  9  1  0
  9 10  2  0
 10 11  1  0
 11 12  1  0
 11 13  2  0
 13 14  1  0
 14  5  1  0
 13  7  1  0
M  END
>  <pIC50>  (244) 
7.96

>  <ChEMBL_ID>  (244) 
CHEMBL315221

>  <document_journal>  (244) 
J. Med. Chem.

>  <bao_endpoint>  (244) 
BAO_0000190

>  <potential_duplicate>  (244) 
False

>  <uo_units>  (244) 
UO_0000065

>  <canonical_smiles>  (244) 
NS(=O)(=O)c1cc2cccc(O)c2s1

>  <parent_molecule_chembl_id>  (244) 
CHEMBL315221

>  <assay_type>  (244) 
B

>  <src_id>  (244) 
1

>  <ligand_efficiency>  (244) 
{u'le': u'0.78', u'bei': u'34.71', u'sei': u'6.8', u'lle': u'6.68'}

>  <standard_flag>  (244) 
True

>  <molecule_chembl_id>  (244) 
CHEMBL315221

>  <target_organism>  (244) 
Homo sapiens

>  <standard_units>  (244) 
nM

>  <record_id>  (244) 
154359

>  <document_chembl_id>  (244) 
CHEMBL1124376

>  <bao_format>  (244) 
BAO_0000019

>  <data_validity_description>  (244) 
None

>  <activity_id>  (244) 
1062646

>  <standard_type>  (244) 
IC50

>  <target_chembl_id>  (244) 
CHEMBL205

>  <data_validity_comment>  (244) 
None

>  <published_value>  (244) 
11

>  <document_year>  (244) 
1989

>  <target_pref_name>  (244) 
Carbonic anhydrase II

>  <assay_chembl_id>  (244) 
CHEMBL656570

>  <standard_relation>  (244) 
=

>  <assay_description>  (244) 
50% inhibition of human carbonic anhydrase II assayed by CO2 hydration catalyzed by human erythrocytes

>  <published_relation>  (244) 
=

>  <standard_value>  (244) 
11

>  <qudt_units>  (244) 
http://www.openphacts.org/units/Nanomolar

>  <target_tax_id>  (244) 
9606

>  <bao_label>  (244) 
assay format

>  <published_units>  (244) 
nM

>  <pchembl_value>  (244) 
7.96

>  <published_type>  (244) 
I50

>  <activity_comment>  (244) 
None

$$$$

     RDKit          

 16 17  0  0  0  0  0  0  0  0999 V2000
    0.0000    0.0000    0.0000 C   0  0  0  0  0  0  0  0  0  0  0  0
    0.0000    0.0000    0.0000 O   0  0  0  0  0  0  0  0  0  0  0  0
    0.0000    0.0000    0.0000 C   0  0  0  0  0  0  0  0  0  0  0  0
    0.0000    0.0000    0.0000 C   0  0  0  0  0  0  0  0  0  0  0  0
    0.0000    0.0000    0.0000 C   0  0  0  0  0  0  0  0  0  0  0  0
    0.0000    0.0000    0.0000 C   0  0  0  0  0  0  0  0  0  0  0  0
    0.0000    0.0000    0.0000 C   0  0  0  0  0  0  0  0  0  0  0  0
    0.0000    0.0000    0.0000 S   0  0  0  0  0  0  0  0  0  0  0  0
    0.0000    0.0000    0.0000 C   0  0  0  0  0  0  0  0  0  0  0  0
    0.0000    0.0000    0.0000 C   0  0  0  0  0  0  0  0  0  0  0  0
    0.0000    0.0000    0.0000 C   0  0  0  0  0  0  0  0  0  0  0  0
    0.0000    0.0000    0.0000 C   0  0  0  0  0  0  0  0  0  0  0  0
    0.0000    0.0000    0.0000 S   0  0  0  0  0  0  0  0  0  0  0  0
    0.0000    0.0000    0.0000 O   0  0  0  0  0  0  0  0  0  0  0  0
    0.0000    0.0000    0.0000 O   0  0  0  0  0  0  0  0  0  0  0  0
    0.0000    0.0000    0.0000 N   0  0  0  0  0  0  0  0  0  0  0  0
  1  2  1  0
  2  3  1  0
  3  4  1  0
  4  5  2  0
  5  6  1  0
  6  7  2  0
  7  8  1  0
  8  9  1  0
  9 10  2  0
 10 11  1  0
 11 12  2  0
  9 13  1  0
 13 14  2  0
 13 15  2  0
 13 16  1  0
 12  4  1  0
 11  7  1  0
M  END
>  <pIC50>  (245) 
8.05

>  <ChEMBL_ID>  (245) 
CHEMBL83589

>  <document_journal>  (245) 
J. Med. Chem.

>  <bao_endpoint>  (245) 
BAO_0000190

>  <potential_duplicate>  (245) 
False

>  <uo_units>  (245) 
UO_0000065

>  <canonical_smiles>  (245) 
COCc1ccc2sc(cc2c1)S(=O)(=O)N

>  <parent_molecule_chembl_id>  (245) 
CHEMBL83589

>  <assay_type>  (245) 
B

>  <src_id>  (245) 
1

>  <ligand_efficiency>  (245) 
{u'le': u'0.69', u'bei': u'31.27', u'sei': u'7.59', u'lle': u'6.72'}

>  <standard_flag>  (245) 
True

>  <molecule_chembl_id>  (245) 
CHEMBL83589

>  <target_organism>  (245) 
Homo sapiens

>  <standard_units>  (245) 
nM

>  <record_id>  (245) 
154352

>  <document_chembl_id>  (245) 
CHEMBL1124376

>  <bao_format>  (245) 
BAO_0000019

>  <data_validity_description>  (245) 
None

>  <activity_id>  (245) 
1065087

>  <standard_type>  (245) 
IC50

>  <target_chembl_id>  (245) 
CHEMBL205

>  <data_validity_comment>  (245) 
None

>  <published_value>  (245) 
9

>  <document_year>  (245) 
1989

>  <target_pref_name>  (245) 
Carbonic anhydrase II

>  <assay_chembl_id>  (245) 
CHEMBL656570

>  <standard_relation>  (245) 
=

>  <assay_description>  (245) 
50% inhibition of human carbonic anhydrase II assayed by CO2 hydration catalyzed by human erythrocytes

>  <published_relation>  (245) 
=

>  <standard_value>  (245) 
9

>  <qudt_units>  (245) 
http://www.openphacts.org/units/Nanomolar

>  <target_tax_id>  (245) 
9606

>  <bao_label>  (245) 
assay format

>  <published_units>  (245) 
nM

>  <pchembl_value>  (245) 
8.05

>  <published_type>  (245) 
I50

>  <activity_comment>  (245) 
None

$$$$

     RDKit          

 23 24  0  0  0  0  0  0  0  0999 V2000
    0.0000    0.0000    0.0000 C   0  0  0  0  0  0  0  0  0  0  0  0
    0.0000    0.0000    0.0000 C   0  0  0  0  0  0  0  0  0  0  0  0
    0.0000    0.0000    0.0000 C   0  0  0  0  0  0  0  0  0  0  0  0
    0.0000    0.0000    0.0000 C   0  0  0  0  0  0  0  0  0  0  0  0
    0.0000    0.0000    0.0000 N   0  0  0  0  0  0  0  0  0  0  0  0
    0.0000    0.0000    0.0000 C   0  0  0  0  0  0  0  0  0  0  0  0
    0.0000    0.0000    0.0000 C   0  0  0  0  0  0  0  0  0  0  0  0
    0.0000    0.0000    0.0000 O   0  0  0  0  0  0  0  0  0  0  0  0
    0.0000    0.0000    0.0000 C   0  0  0  0  0  0  0  0  0  0  0  0
    0.0000    0.0000    0.0000 O   0  0  0  0  0  0  0  0  0  0  0  0
    0.0000    0.0000    0.0000 C   0  0  0  0  0  0  0  0  0  0  0  0
    0.0000    0.0000    0.0000 C   0  0  0  0  0  0  0  0  0  0  0  0
    0.0000    0.0000    0.0000 C   0  0  0  0  0  0  0  0  0  0  0  0
    0.0000    0.0000    0.0000 C   0  0  0  0  0  0  0  0  0  0  0  0
    0.0000    0.0000    0.0000 C   0  0  0  0  0  0  0  0  0  0  0  0
    0.0000    0.0000    0.0000 C   0  0  0  0  0  0  0  0  0  0  0  0
    0.0000    0.0000    0.0000 S   0  0  0  0  0  0  0  0  0  0  0  0
    0.0000    0.0000    0.0000 C   0  0  0  0  0  0  0  0  0  0  0  0
    0.0000    0.0000    0.0000 C   0  0  0  0  0  0  0  0  0  0  0  0
    0.0000    0.0000    0.0000 S   0  0  0  0  0  0  0  0  0  0  0  0
    0.0000    0.0000    0.0000 O   0  0  0  0  0  0  0  0  0  0  0  0
    0.0000    0.0000    0.0000 O   0  0  0  0  0  0  0  0  0  0  0  0
    0.0000    0.0000    0.0000 N   0  0  0  0  0  0  0  0  0  0  0  0
  1  2  1  0
  2  3  1  0
  2  4  1  0
  2  5  1  0
  5  6  1  0
  6  7  1  0
  7  8  1  0
  7  9  1  0
  9 10  1  0
 10 11  1  0
 11 12  2  0
 12 13  1  0
 13 14  2  0
 14 15  1  0
 15 16  2  0
 16 17  1  0
 17 18  1  0
 18 19  2  0
 16 20  1  0
 20 21  2  0
 20 22  2  0
 20 23  1  0
 19 11  1  0
 18 14  1  0
M  END
>  <pIC50>  (246) 
7.75

>  <ChEMBL_ID>  (246) 
CHEMBL540554

>  <document_journal>  (246) 
J. Med. Chem.

>  <bao_endpoint>  (246) 
BAO_0000190

>  <potential_duplicate>  (246) 
False

>  <uo_units>  (246) 
UO_0000065

>  <canonical_smiles>  (246) 
Cl.CC(C)(C)NCC(O)COc1ccc2cc(sc2c1)S(=O)(=O)N

>  <parent_molecule_chembl_id>  (246) 
CHEMBL1190282

>  <assay_type>  (246) 
B

>  <src_id>  (246) 
1

>  <ligand_efficiency>  (246) 
{u'le': u'0.46', u'bei': u'21.6', u'sei': u'5.6', u'lle': u'6.21'}

>  <standard_flag>  (246) 
True

>  <molecule_chembl_id>  (246) 
CHEMBL540554

>  <target_organism>  (246) 
Homo sapiens

>  <standard_units>  (246) 
nM

>  <record_id>  (246) 
154376

>  <document_chembl_id>  (246) 
CHEMBL1124376

>  <bao_format>  (246) 
BAO_0000019

>  <data_validity_description>  (246) 
None

>  <activity_id>  (246) 
1066229

>  <standard_type>  (246) 
IC50

>  <target_chembl_id>  (246) 
CHEMBL205

>  <data_validity_comment>  (246) 
None

>  <published_value>  (246) 
18

>  <document_year>  (246) 
1989

>  <target_pref_name>  (246) 
Carbonic anhydrase II

>  <assay_chembl_id>  (246) 
CHEMBL656570

>  <standard_relation>  (246) 
=

>  <assay_description>  (246) 
50% inhibition of human carbonic anhydrase II assayed by CO2 hydration catalyzed by human erythrocytes

>  <published_relation>  (246) 
=

>  <standard_value>  (246) 
18

>  <qudt_units>  (246) 
http://www.openphacts.org/units/Nanomolar

>  <target_tax_id>  (246) 
9606

>  <bao_label>  (246) 
assay format

>  <published_units>  (246) 
nM

>  <pchembl_value>  (246) 
7.75

>  <published_type>  (246) 
I50

>  <activity_comment>  (246) 
None

$$$$

     RDKit          

 20 21  0  0  0  0  0  0  0  0999 V2000
    0.0000    0.0000    0.0000 C   0  0  0  0  0  0  0  0  0  0  0  0
    0.0000    0.0000    0.0000 C   0  0  0  0  0  0  0  0  0  0  0  0
    0.0000    0.0000    0.0000 C   0  0  0  0  0  0  0  0  0  0  0  0
    0.0000    0.0000    0.0000 C   0  0  0  0  0  0  0  0  0  0  0  0
    0.0000    0.0000    0.0000 N   0  0  0  0  0  0  0  0  0  0  0  0
    0.0000    0.0000    0.0000 C   0  0  0  0  0  0  0  0  0  0  0  0
    0.0000    0.0000    0.0000 C   0  0  0  0  0  0  0  0  0  0  0  0
    0.0000    0.0000    0.0000 C   0  0  0  0  0  0  0  0  0  0  0  0
    0.0000    0.0000    0.0000 S   0  0  0  0  0  0  0  0  0  0  0  0
    0.0000    0.0000    0.0000 O   0  0  0  0  0  0  0  0  0  0  0  0
    0.0000    0.0000    0.0000 O   0  0  0  0  0  0  0  0  0  0  0  0
    0.0000    0.0000    0.0000 C   0  0  0  0  0  0  0  0  0  0  0  0
    0.0000    0.0000    0.0000 S   0  0  0  0  0  0  0  0  0  0  0  0
    0.0000    0.0000    0.0000 C   0  0  0  0  0  0  0  0  0  0  0  0
    0.0000    0.0000    0.0000 C   0  0  0  0  0  0  0  0  0  0  0  0
    0.0000    0.0000    0.0000 C   0  0  0  0  0  0  0  0  0  0  0  0
    0.0000    0.0000    0.0000 S   0  0  0  0  0  0  0  0  0  0  0  0
    0.0000    0.0000    0.0000 O   0  0  0  0  0  0  0  0  0  0  0  0
    0.0000    0.0000    0.0000 O   0  0  0  0  0  0  0  0  0  0  0  0
    0.0000    0.0000    0.0000 N   0  0  0  0  0  0  0  0  0  0  0  0
  1  2  1  0
  2  3  1  0
  2  4  1  0
  4  5  1  0
  5  6  1  0
  6  7  1  0
  7  8  1  0
  8  9  1  0
  9 10  2  0
  9 11  2  0
  9 12  1  0
 12 13  1  0
 13 14  1  0
 14 15  2  0
 15 16  1  0
 14 17  1  0
 17 18  2  0
 17 19  2  0
 17 20  1  0
 16  6  1  0
 16 12  2  0
M  END
>  <pIC50>  (247) 
7.35

>  <ChEMBL_ID>  (247) 
CHEMBL9849

>  <document_journal>  (247) 
J. Med. Chem.

>  <bao_endpoint>  (247) 
BAO_0000190

>  <potential_duplicate>  (247) 
False

>  <uo_units>  (247) 
UO_0000065

>  <canonical_smiles>  (247) 
CC(C)CN[C@@H]1CCS(=O)(=O)c2sc(cc12)S(=O)(=O)N

>  <parent_molecule_chembl_id>  (247) 
CHEMBL9849

>  <assay_type>  (247) 
B

>  <src_id>  (247) 
1

>  <ligand_efficiency>  (247) 
{u'le': u'0.5', u'bei': u'21.71', u'sei': u'4.85', u'lle': u'6.74'}

>  <standard_flag>  (247) 
True

>  <molecule_chembl_id>  (247) 
CHEMBL9849

>  <target_organism>  (247) 
Homo sapiens

>  <standard_units>  (247) 
nM

>  <record_id>  (247) 
5924

>  <document_chembl_id>  (247) 
CHEMBL1127692

>  <bao_format>  (247) 
BAO_0000357

>  <data_validity_description>  (247) 
None

>  <activity_id>  (247) 
1121413

>  <standard_type>  (247) 
IC50

>  <target_chembl_id>  (247) 
CHEMBL205

>  <data_validity_comment>  (247) 
None

>  <published_value>  (247) 
45

>  <document_year>  (247) 
1994

>  <target_pref_name>  (247) 
Carbonic anhydrase II

>  <assay_chembl_id>  (247) 
CHEMBL656582

>  <standard_relation>  (247) 
=

>  <assay_description>  (247) 
Compound was evaluated for the inhibitory activity against Human Carbonic anhydrase II (HCA II)

>  <published_relation>  (247) 
=

>  <standard_value>  (247) 
45

>  <qudt_units>  (247) 
http://www.openphacts.org/units/Nanomolar

>  <target_tax_id>  (247) 
9606

>  <bao_label>  (247) 
single protein format

>  <published_units>  (247) 
nM

>  <pchembl_value>  (247) 
7.35

>  <published_type>  (247) 
IC50

>  <activity_comment>  (247) 
None

$$$$

     RDKit          

 19 20  0  0  0  0  0  0  0  0999 V2000
    0.0000    0.0000    0.0000 C   0  0  0  0  0  0  0  0  0  0  0  0
    0.0000    0.0000    0.0000 C   0  0  0  0  0  0  0  0  0  0  0  0
    0.0000    0.0000    0.0000 N   0  0  0  0  0  0  0  0  0  0  0  0
    0.0000    0.0000    0.0000 C   0  0  0  0  0  0  0  0  0  0  0  0
    0.0000    0.0000    0.0000 C   0  0  0  0  0  0  0  0  0  0  0  0
    0.0000    0.0000    0.0000 C   0  0  0  0  0  0  0  0  0  0  0  0
    0.0000    0.0000    0.0000 C   0  0  0  0  0  0  0  0  0  0  0  0
    0.0000    0.0000    0.0000 S   0  0  0  0  0  0  0  0  0  0  0  0
    0.0000    0.0000    0.0000 O   0  0  0  0  0  0  0  0  0  0  0  0
    0.0000    0.0000    0.0000 O   0  0  0  0  0  0  0  0  0  0  0  0
    0.0000    0.0000    0.0000 C   0  0  0  0  0  0  0  0  0  0  0  0
    0.0000    0.0000    0.0000 S   0  0  0  0  0  0  0  0  0  0  0  0
    0.0000    0.0000    0.0000 C   0  0  0  0  0  0  0  0  0  0  0  0
    0.0000    0.0000    0.0000 C   0  0  0  0  0  0  0  0  0  0  0  0
    0.0000    0.0000    0.0000 C   0  0  0  0  0  0  0  0  0  0  0  0
    0.0000    0.0000    0.0000 S   0  0  0  0  0  0  0  0  0  0  0  0
    0.0000    0.0000    0.0000 O   0  0  0  0  0  0  0  0  0  0  0  0
    0.0000    0.0000    0.0000 O   0  0  0  0  0  0  0  0  0  0  0  0
    0.0000    0.0000    0.0000 N   0  0  0  0  0  0  0  0  0  0  0  0
  1  2  1  0
  2  3  1  0
  3  4  1  0
  4  5  1  0
  5  6  1  0
  6  7  1  0
  6  8  1  0
  8  9  2  0
  8 10  2  0
  8 11  1  0
 11 12  1  0
 12 13  1  0
 13 14  2  0
 14 15  1  0
 13 16  1  0
 16 17  2  0
 16 18  2  0
 16 19  1  0
 15  4  1  0
 15 11  2  0
M  END
>  <pIC50>  (248) 
7.53

>  <ChEMBL_ID>  (248) 
CHEMBL276679

>  <document_journal>  (248) 
J. Med. Chem.

>  <bao_endpoint>  (248) 
BAO_0000190

>  <potential_duplicate>  (248) 
False

>  <uo_units>  (248) 
UO_0000065

>  <canonical_smiles>  (248) 
CCN[C@@H]1C[C@H](C)S(=O)(=O)c2sc(cc12)S(=O)(=O)N

>  <parent_molecule_chembl_id>  (248) 
CHEMBL276679

>  <assay_type>  (248) 
B

>  <src_id>  (248) 
1

>  <ligand_efficiency>  (248) 
{u'le': u'0.54', u'bei': u'23.21', u'sei': u'4.98', u'lle': u'7.38'}

>  <standard_flag>  (248) 
True

>  <molecule_chembl_id>  (248) 
CHEMBL276679

>  <target_organism>  (248) 
Homo sapiens

>  <standard_units>  (248) 
nM

>  <record_id>  (248) 
5926

>  <document_chembl_id>  (248) 
CHEMBL1127692

>  <bao_format>  (248) 
BAO_0000357

>  <data_validity_description>  (248) 
None

>  <activity_id>  (248) 
1127398

>  <standard_type>  (248) 
IC50

>  <target_chembl_id>  (248) 
CHEMBL205

>  <data_validity_comment>  (248) 
None

>  <published_value>  (248) 
29.5

>  <document_year>  (248) 
1994

>  <target_pref_name>  (248) 
Carbonic anhydrase II

>  <assay_chembl_id>  (248) 
CHEMBL656582

>  <standard_relation>  (248) 
=

>  <assay_description>  (248) 
Compound was evaluated for the inhibitory activity against Human Carbonic anhydrase II (HCA II)

>  <published_relation>  (248) 
=

>  <standard_value>  (248) 
29.5

>  <qudt_units>  (248) 
http://www.openphacts.org/units/Nanomolar

>  <target_tax_id>  (248) 
9606

>  <bao_label>  (248) 
single protein format

>  <published_units>  (248) 
nM

>  <pchembl_value>  (248) 
7.53

>  <published_type>  (248) 
IC50

>  <activity_comment>  (248) 
None

$$$$

     RDKit          

 17 17  0  0  0  0  0  0  0  0999 V2000
    0.0000    0.0000    0.0000 C   0  0  0  0  0  0  0  0  0  0  0  0
    0.0000    0.0000    0.0000 C   0  0  0  0  0  0  0  0  0  0  0  0
    0.0000    0.0000    0.0000 C   0  0  0  0  0  0  0  0  0  0  0  0
    0.0000    0.0000    0.0000 C   0  0  0  0  0  0  0  0  0  0  0  0
    0.0000    0.0000    0.0000 C   0  0  0  0  0  0  0  0  0  0  0  0
    0.0000    0.0000    0.0000 C   0  0  0  0  0  0  0  0  0  0  0  0
    0.0000    0.0000    0.0000 C   0  0  0  0  0  0  0  0  0  0  0  0
    0.0000    0.0000    0.0000 O   0  0  0  0  0  0  0  0  0  0  0  0
    0.0000    0.0000    0.0000 C   0  0  0  0  0  0  0  0  0  0  0  0
    0.0000    0.0000    0.0000 C   0  0  0  0  0  0  0  0  0  0  0  0
    0.0000    0.0000    0.0000 S   0  0  0  0  0  0  0  0  0  0  0  0
    0.0000    0.0000    0.0000 C   0  0  0  0  0  0  0  0  0  0  0  0
    0.0000    0.0000    0.0000 C   0  0  0  0  0  0  0  0  0  0  0  0
    0.0000    0.0000    0.0000 S   0  0  0  0  0  0  0  0  0  0  0  0
    0.0000    0.0000    0.0000 O   0  0  0  0  0  0  0  0  0  0  0  0
    0.0000    0.0000    0.0000 O   0  0  0  0  0  0  0  0  0  0  0  0
    0.0000    0.0000    0.0000 N   0  0  0  0  0  0  0  0  0  0  0  0
  1  2  1  0
  2  3  1  0
  3  4  1  0
  4  5  1  0
  5  6  1  0
  6  7  1  0
  7  8  2  0
  7  9  1  0
  9 10  2  0
 10 11  1  0
 11 12  1  0
 12 13  2  0
 12 14  1  0
 14 15  2  0
 14 16  2  0
 14 17  1  0
 13  9  1  0
M  END
>  <pIC50>  (249) 
8.3

>  <ChEMBL_ID>  (249) 
CHEMBL44173

>  <document_journal>  (249) 
J. Med. Chem.

>  <bao_endpoint>  (249) 
BAO_0000190

>  <potential_duplicate>  (249) 
False

>  <uo_units>  (249) 
UO_0000065

>  <canonical_smiles>  (249) 
CCCCCCC(=O)c1csc(c1)S(=O)(=O)N

>  <parent_molecule_chembl_id>  (249) 
CHEMBL44173

>  <assay_type>  (249) 
B

>  <src_id>  (249) 
1

>  <ligand_efficiency>  (249) 
{u'le': u'0.67', u'bei': u'30.14', u'sei': u'7.29', u'lle': u'5.75'}

>  <standard_flag>  (249) 
True

>  <molecule_chembl_id>  (249) 
CHEMBL44173

>  <target_organism>  (249) 
Homo sapiens

>  <standard_units>  (249) 
nM

>  <record_id>  (249) 
71494

>  <document_chembl_id>  (249) 
CHEMBL1127528

>  <bao_format>  (249) 
BAO_0000357

>  <data_validity_description>  (249) 
None

>  <activity_id>  (249) 
1143634

>  <standard_type>  (249) 
IC50

>  <target_chembl_id>  (249) 
CHEMBL205

>  <data_validity_comment>  (249) 
None

>  <published_value>  (249) 
5

>  <document_year>  (249) 
1994

>  <target_pref_name>  (249) 
Carbonic anhydrase II

>  <assay_chembl_id>  (249) 
CHEMBL656581

>  <standard_relation>  (249) 
=

>  <assay_description>  (249) 
Activity against human carbonic anhydrase II

>  <published_relation>  (249) 
=

>  <standard_value>  (249) 
5

>  <qudt_units>  (249) 
http://www.openphacts.org/units/Nanomolar

>  <target_tax_id>  (249) 
9606

>  <bao_label>  (249) 
single protein format

>  <published_units>  (249) 
nM

>  <pchembl_value>  (249) 
8.3

>  <published_type>  (249) 
IC50

>  <activity_comment>  (249) 
None

$$$$

     RDKit          

 19 19  0  0  0  0  0  0  0  0999 V2000
    0.0000    0.0000    0.0000 C   0  0  0  0  0  0  0  0  0  0  0  0
    0.0000    0.0000    0.0000 C   0  0  0  0  0  0  0  0  0  0  0  0
    0.0000    0.0000    0.0000 C   0  0  0  0  0  0  0  0  0  0  0  0
    0.0000    0.0000    0.0000 C   0  0  0  0  0  0  0  0  0  0  0  0
    0.0000    0.0000    0.0000 C   0  0  0  0  0  0  0  0  0  0  0  0
    0.0000    0.0000    0.0000 C   0  0  0  0  0  0  0  0  0  0  0  0
    0.0000    0.0000    0.0000 C   0  0  0  0  0  0  0  0  0  0  0  0
    0.0000    0.0000    0.0000 N   0  0  0  0  0  0  0  0  0  0  0  0
    0.0000    0.0000    0.0000 O   0  0  0  0  0  0  0  0  0  0  0  0
    0.0000    0.0000    0.0000 C   0  0  0  0  0  0  0  0  0  0  0  0
    0.0000    0.0000    0.0000 C   0  0  0  0  0  0  0  0  0  0  0  0
    0.0000    0.0000    0.0000 C   0  0  0  0  0  0  0  0  0  0  0  0
    0.0000    0.0000    0.0000 S   0  0  0  0  0  0  0  0  0  0  0  0
    0.0000    0.0000    0.0000 C   0  0  0  0  0  0  0  0  0  0  0  0
    0.0000    0.0000    0.0000 C   0  0  0  0  0  0  0  0  0  0  0  0
    0.0000    0.0000    0.0000 S   0  0  0  0  0  0  0  0  0  0  0  0
    0.0000    0.0000    0.0000 O   0  0  0  0  0  0  0  0  0  0  0  0
    0.0000    0.0000    0.0000 O   0  0  0  0  0  0  0  0  0  0  0  0
    0.0000    0.0000    0.0000 N   0  0  0  0  0  0  0  0  0  0  0  0
  1  2  1  0
  2  3  1  0
  3  4  1  0
  4  5  1  0
  5  6  1  0
  6  7  1  0
  7  8  2  0
  8  9  1  0
  9 10  1  0
  7 11  1  0
 11 12  2  0
 12 13  1  0
 13 14  1  0
 14 15  2  0
 14 16  1  0
 16 17  2  0
 16 18  2  0
 16 19  1  0
 15 11  1  0
M  END
>  <pIC50>  (250) 
8.33

>  <ChEMBL_ID>  (250) 
CHEMBL42675

>  <document_journal>  (250) 
J. Med. Chem.

>  <bao_endpoint>  (250) 
BAO_0000190

>  <potential_duplicate>  (250) 
False

>  <uo_units>  (250) 
UO_0000065

>  <canonical_smiles>  (250) 
CCCCCC\C(=N/OC)\c1csc(c1)S(=O)(=O)N

>  <parent_molecule_chembl_id>  (250) 
CHEMBL42675

>  <assay_type>  (250) 
B

>  <src_id>  (250) 
1

>  <ligand_efficiency>  (250) 
{u'le': u'0.6', u'bei': u'27.36', u'sei': u'7.04', u'lle': u'5.67'}

>  <standard_flag>  (250) 
True

>  <molecule_chembl_id>  (250) 
CHEMBL42675

>  <target_organism>  (250) 
Homo sapiens

>  <standard_units>  (250) 
nM

>  <record_id>  (250) 
71492

>  <document_chembl_id>  (250) 
CHEMBL1127528

>  <bao_format>  (250) 
BAO_0000357

>  <data_validity_description>  (250) 
None

>  <activity_id>  (250) 
1148867

>  <standard_type>  (250) 
IC50

>  <target_chembl_id>  (250) 
CHEMBL205

>  <data_validity_comment>  (250) 
None

>  <published_value>  (250) 
4.7

>  <document_year>  (250) 
1994

>  <target_pref_name>  (250) 
Carbonic anhydrase II

>  <assay_chembl_id>  (250) 
CHEMBL656581

>  <standard_relation>  (250) 
=

>  <assay_description>  (250) 
Activity against human carbonic anhydrase II

>  <published_relation>  (250) 
=

>  <standard_value>  (250) 
4.7

>  <qudt_units>  (250) 
http://www.openphacts.org/units/Nanomolar

>  <target_tax_id>  (250) 
9606

>  <bao_label>  (250) 
single protein format

>  <published_units>  (250) 
nM

>  <pchembl_value>  (250) 
8.33

>  <published_type>  (250) 
IC50

>  <activity_comment>  (250) 
None

$$$$

     RDKit          

 18 18  0  0  0  0  0  0  0  0999 V2000
    0.0000    0.0000    0.0000 C   0  0  0  0  0  0  0  0  0  0  0  0
    0.0000    0.0000    0.0000 C   0  0  0  0  0  0  0  0  0  0  0  0
    0.0000    0.0000    0.0000 C   0  0  0  0  0  0  0  0  0  0  0  0
    0.0000    0.0000    0.0000 C   0  0  0  0  0  0  0  0  0  0  0  0
    0.0000    0.0000    0.0000 C   0  0  0  0  0  0  0  0  0  0  0  0
    0.0000    0.0000    0.0000 C   0  0  0  0  0  0  0  0  0  0  0  0
    0.0000    0.0000    0.0000 C   0  0  0  0  0  0  0  0  0  0  0  0
    0.0000    0.0000    0.0000 N   0  0  0  0  0  0  0  0  0  0  0  0
    0.0000    0.0000    0.0000 N   0  0  0  0  0  0  0  0  0  0  0  0
    0.0000    0.0000    0.0000 C   0  0  0  0  0  0  0  0  0  0  0  0
    0.0000    0.0000    0.0000 C   0  0  0  0  0  0  0  0  0  0  0  0
    0.0000    0.0000    0.0000 S   0  0  0  0  0  0  0  0  0  0  0  0
    0.0000    0.0000    0.0000 C   0  0  0  0  0  0  0  0  0  0  0  0
    0.0000    0.0000    0.0000 C   0  0  0  0  0  0  0  0  0  0  0  0
    0.0000    0.0000    0.0000 S   0  0  0  0  0  0  0  0  0  0  0  0
    0.0000    0.0000    0.0000 O   0  0  0  0  0  0  0  0  0  0  0  0
    0.0000    0.0000    0.0000 O   0  0  0  0  0  0  0  0  0  0  0  0
    0.0000    0.0000    0.0000 N   0  0  0  0  0  0  0  0  0  0  0  0
  1  2  1  0
  2  3  1  0
  3  4  1  0
  4  5  1  0
  5  6  1  0
  6  7  1  0
  7  8  2  0
  8  9  1  0
  7 10  1  0
 10 11  2  0
 11 12  1  0
 12 13  1  0
 13 14  2  0
 13 15  1  0
 15 16  2  0
 15 17  2  0
 15 18  1  0
 14 10  1  0
M  END
>  <pIC50>  (251) 
8.7

>  <ChEMBL_ID>  (251) 
CHEMBL42278

>  <document_journal>  (251) 
J. Med. Chem.

>  <bao_endpoint>  (251) 
BAO_0000190

>  <potential_duplicate>  (251) 
False

>  <uo_units>  (251) 
UO_0000065

>  <canonical_smiles>  (251) 
CCCCCC\C(=N/N)\c1csc(c1)S(=O)(=O)N

>  <parent_molecule_chembl_id>  (251) 
CHEMBL42278

>  <assay_type>  (251) 
B

>  <src_id>  (251) 
1

>  <ligand_efficiency>  (251) 
{u'le': u'0.66', u'bei': u'30.06', u'sei': u'6.44', u'lle': u'6.58'}

>  <standard_flag>  (251) 
True

>  <molecule_chembl_id>  (251) 
CHEMBL42278

>  <target_organism>  (251) 
Homo sapiens

>  <standard_units>  (251) 
nM

>  <record_id>  (251) 
71491

>  <document_chembl_id>  (251) 
CHEMBL1127528

>  <bao_format>  (251) 
BAO_0000357

>  <data_validity_description>  (251) 
None

>  <activity_id>  (251) 
1150113

>  <standard_type>  (251) 
IC50

>  <target_chembl_id>  (251) 
CHEMBL205

>  <data_validity_comment>  (251) 
None

>  <published_value>  (251) 
2

>  <document_year>  (251) 
1994

>  <target_pref_name>  (251) 
Carbonic anhydrase II

>  <assay_chembl_id>  (251) 
CHEMBL656581

>  <standard_relation>  (251) 
=

>  <assay_description>  (251) 
Activity against human carbonic anhydrase II

>  <published_relation>  (251) 
=

>  <standard_value>  (251) 
2

>  <qudt_units>  (251) 
http://www.openphacts.org/units/Nanomolar

>  <target_tax_id>  (251) 
9606

>  <bao_label>  (251) 
single protein format

>  <published_units>  (251) 
nM

>  <pchembl_value>  (251) 
8.7

>  <published_type>  (251) 
IC50

>  <activity_comment>  (251) 
None

$$$$

     RDKit          

 16 16  0  0  0  0  0  0  0  0999 V2000
    0.0000    0.0000    0.0000 C   0  0  0  0  0  0  0  0  0  0  0  0
    0.0000    0.0000    0.0000 C   0  0  0  0  0  0  0  0  0  0  0  0
    0.0000    0.0000    0.0000 C   0  0  0  0  0  0  0  0  0  0  0  0
    0.0000    0.0000    0.0000 C   0  0  0  0  0  0  0  0  0  0  0  0
    0.0000    0.0000    0.0000 N   0  0  0  0  0  0  0  0  0  0  0  0
    0.0000    0.0000    0.0000 C   0  0  0  0  0  0  0  0  0  0  0  0
    0.0000    0.0000    0.0000 C   0  0  0  0  0  0  0  0  0  0  0  0
    0.0000    0.0000    0.0000 C   0  0  0  0  0  0  0  0  0  0  0  0
    0.0000    0.0000    0.0000 C   0  0  0  0  0  0  0  0  0  0  0  0
    0.0000    0.0000    0.0000 S   0  0  0  0  0  0  0  0  0  0  0  0
    0.0000    0.0000    0.0000 C   0  0  0  0  0  0  0  0  0  0  0  0
    0.0000    0.0000    0.0000 C   0  0  0  0  0  0  0  0  0  0  0  0
    0.0000    0.0000    0.0000 S   0  0  0  0  0  0  0  0  0  0  0  0
    0.0000    0.0000    0.0000 O   0  0  0  0  0  0  0  0  0  0  0  0
    0.0000    0.0000    0.0000 O   0  0  0  0  0  0  0  0  0  0  0  0
    0.0000    0.0000    0.0000 N   0  0  0  0  0  0  0  0  0  0  0  0
  1  2  1  0
  2  3  1  0
  3  4  1  0
  4  5  1  0
  5  6  1  0
  6  7  1  0
  6  8  1  0
  8  9  2  0
  9 10  1  0
 10 11  1  0
 11 12  2  0
 11 13  1  0
 13 14  2  0
 13 15  2  0
 13 16  1  0
 12  8  1  0
M  END
>  <pIC50>  (252) 
6.23

>  <ChEMBL_ID>  (252) 
CHEMBL44238

>  <document_journal>  (252) 
J. Med. Chem.

>  <bao_endpoint>  (252) 
BAO_0000190

>  <potential_duplicate>  (252) 
False

>  <uo_units>  (252) 
UO_0000065

>  <canonical_smiles>  (252) 
CCCCNC(C)c1csc(c1)S(=O)(=O)N

>  <parent_molecule_chembl_id>  (252) 
CHEMBL44238

>  <assay_type>  (252) 
B

>  <src_id>  (252) 
1

>  <ligand_efficiency>  (252) 
{u'le': u'0.53', u'bei': u'23.74', u'sei': u'5.73', u'lle': u'4.66'}

>  <standard_flag>  (252) 
True

>  <molecule_chembl_id>  (252) 
CHEMBL44238

>  <target_organism>  (252) 
Homo sapiens

>  <standard_units>  (252) 
nM

>  <record_id>  (252) 
71498

>  <document_chembl_id>  (252) 
CHEMBL1127528

>  <bao_format>  (252) 
BAO_0000357

>  <data_validity_description>  (252) 
None

>  <activity_id>  (252) 
1150116

>  <standard_type>  (252) 
IC50

>  <target_chembl_id>  (252) 
CHEMBL205

>  <data_validity_comment>  (252) 
None

>  <published_value>  (252) 
590

>  <document_year>  (252) 
1994

>  <target_pref_name>  (252) 
Carbonic anhydrase II

>  <assay_chembl_id>  (252) 
CHEMBL656581

>  <standard_relation>  (252) 
=

>  <assay_description>  (252) 
Activity against human carbonic anhydrase II

>  <published_relation>  (252) 
=

>  <standard_value>  (252) 
590

>  <qudt_units>  (252) 
http://www.openphacts.org/units/Nanomolar

>  <target_tax_id>  (252) 
9606

>  <bao_label>  (252) 
single protein format

>  <published_units>  (252) 
nM

>  <pchembl_value>  (252) 
6.23

>  <published_type>  (252) 
IC50

>  <activity_comment>  (252) 
None

$$$$

     RDKit          

 17 18  0  0  0  0  0  0  0  0999 V2000
    0.0000    0.0000    0.0000 N   0  0  0  0  0  0  0  0  0  0  0  0
    0.0000    0.0000    0.0000 S   0  0  0  0  0  0  0  0  0  0  0  0
    0.0000    0.0000    0.0000 O   0  0  0  0  0  0  0  0  0  0  0  0
    0.0000    0.0000    0.0000 O   0  0  0  0  0  0  0  0  0  0  0  0
    0.0000    0.0000    0.0000 C   0  0  0  0  0  0  0  0  0  0  0  0
    0.0000    0.0000    0.0000 C   0  0  0  0  0  0  0  0  0  0  0  0
    0.0000    0.0000    0.0000 C   0  0  0  0  0  0  0  0  0  0  0  0
    0.0000    0.0000    0.0000 C   0  0  0  0  0  0  0  0  0  0  0  0
    0.0000    0.0000    0.0000 S   0  0  0  0  0  0  0  0  0  0  0  0
    0.0000    0.0000    0.0000 C   0  0  0  0  0  0  0  0  0  0  0  0
    0.0000    0.0000    0.0000 O   0  0  0  0  0  0  0  0  0  0  0  0
    0.0000    0.0000    0.0000 C   0  0  0  0  0  0  0  0  0  0  0  0
    0.0000    0.0000    0.0000 C   0  0  0  0  0  0  0  0  0  0  0  0
    0.0000    0.0000    0.0000 C   0  0  0  0  0  0  0  0  0  0  0  0
    0.0000    0.0000    0.0000 C   0  0  0  0  0  0  0  0  0  0  0  0
    0.0000    0.0000    0.0000 C   0  0  0  0  0  0  0  0  0  0  0  0
    0.0000    0.0000    0.0000 C   0  0  0  0  0  0  0  0  0  0  0  0
  1  2  1  0
  2  3  2  0
  2  4  2  0
  2  5  1  0
  5  6  2  0
  6  7  1  0
  7  8  2  0
  8  9  1  0
  7 10  1  0
 10 11  2  0
 10 12  1  0
 12 13  2  0
 13 14  1  0
 14 15  2  0
 15 16  1  0
 16 17  2  0
  9  5  1  0
 17 12  1  0
M  END
>  <pIC50>  (253) 
8.17

>  <ChEMBL_ID>  (253) 
CHEMBL43440

>  <document_journal>  (253) 
J. Med. Chem.

>  <bao_endpoint>  (253) 
BAO_0000190

>  <potential_duplicate>  (253) 
False

>  <uo_units>  (253) 
UO_0000065

>  <canonical_smiles>  (253) 
NS(=O)(=O)c1cc(cs1)C(=O)c2ccccc2

>  <parent_molecule_chembl_id>  (253) 
CHEMBL43440

>  <assay_type>  (253) 
B

>  <src_id>  (253) 
1

>  <ligand_efficiency>  (253) 
{u'le': u'0.66', u'bei': u'30.55', u'sei': u'7.17', u'lle': u'6.44'}

>  <standard_flag>  (253) 
True

>  <molecule_chembl_id>  (253) 
CHEMBL43440

>  <target_organism>  (253) 
Homo sapiens

>  <standard_units>  (253) 
nM

>  <record_id>  (253) 
71497

>  <document_chembl_id>  (253) 
CHEMBL1127528

>  <bao_format>  (253) 
BAO_0000357

>  <data_validity_description>  (253) 
None

>  <activity_id>  (253) 
1157710

>  <standard_type>  (253) 
IC50

>  <target_chembl_id>  (253) 
CHEMBL205

>  <data_validity_comment>  (253) 
None

>  <published_value>  (253) 
6.8

>  <document_year>  (253) 
1994

>  <target_pref_name>  (253) 
Carbonic anhydrase II

>  <assay_chembl_id>  (253) 
CHEMBL656581

>  <standard_relation>  (253) 
=

>  <assay_description>  (253) 
Activity against human carbonic anhydrase II

>  <published_relation>  (253) 
=

>  <standard_value>  (253) 
6.8

>  <qudt_units>  (253) 
http://www.openphacts.org/units/Nanomolar

>  <target_tax_id>  (253) 
9606

>  <bao_label>  (253) 
single protein format

>  <published_units>  (253) 
nM

>  <pchembl_value>  (253) 
8.17

>  <published_type>  (253) 
IC50

>  <activity_comment>  (253) 
None

$$$$

     RDKit          

 15 15  0  0  0  0  0  0  0  0999 V2000
    0.0000    0.0000    0.0000 C   0  0  0  0  0  0  0  0  0  0  0  0
    0.0000    0.0000    0.0000 C   0  0  0  0  0  0  0  0  0  0  0  0
    0.0000    0.0000    0.0000 C   0  0  0  0  0  0  0  0  0  0  0  0
    0.0000    0.0000    0.0000 C   0  0  0  0  0  0  0  0  0  0  0  0
    0.0000    0.0000    0.0000 C   0  0  0  0  0  0  0  0  0  0  0  0
    0.0000    0.0000    0.0000 N   0  0  0  0  0  0  0  0  0  0  0  0
    0.0000    0.0000    0.0000 C   0  0  0  0  0  0  0  0  0  0  0  0
    0.0000    0.0000    0.0000 C   0  0  0  0  0  0  0  0  0  0  0  0
    0.0000    0.0000    0.0000 S   0  0  0  0  0  0  0  0  0  0  0  0
    0.0000    0.0000    0.0000 C   0  0  0  0  0  0  0  0  0  0  0  0
    0.0000    0.0000    0.0000 C   0  0  0  0  0  0  0  0  0  0  0  0
    0.0000    0.0000    0.0000 S   0  0  0  0  0  0  0  0  0  0  0  0
    0.0000    0.0000    0.0000 O   0  0  0  0  0  0  0  0  0  0  0  0
    0.0000    0.0000    0.0000 O   0  0  0  0  0  0  0  0  0  0  0  0
    0.0000    0.0000    0.0000 N   0  0  0  0  0  0  0  0  0  0  0  0
  1  2  1  0
  2  3  1  0
  3  4  1  0
  4  5  1  0
  5  6  1  0
  5  7  1  0
  7  8  2  0
  8  9  1  0
  9 10  1  0
 10 11  2  0
 10 12  1  0
 12 13  2  0
 12 14  2  0
 12 15  1  0
 11  7  1  0
M  END
>  <pIC50>  (254) 
6.2

>  <ChEMBL_ID>  (254) 
CHEMBL42080

>  <document_journal>  (254) 
J. Med. Chem.

>  <bao_endpoint>  (254) 
BAO_0000190

>  <potential_duplicate>  (254) 
False

>  <uo_units>  (254) 
UO_0000065

>  <canonical_smiles>  (254) 
CCCCC(N)c1csc(c1)S(=O)(=O)N

>  <parent_molecule_chembl_id>  (254) 
CHEMBL42080

>  <assay_type>  (254) 
B

>  <src_id>  (254) 
1

>  <ligand_efficiency>  (254) 
{u'le': u'0.56', u'bei': u'24.98', u'sei': u'5.05', u'lle': u'4.96'}

>  <standard_flag>  (254) 
True

>  <molecule_chembl_id>  (254) 
CHEMBL42080

>  <target_organism>  (254) 
Homo sapiens

>  <standard_units>  (254) 
nM

>  <record_id>  (254) 
71487

>  <document_chembl_id>  (254) 
CHEMBL1127528

>  <bao_format>  (254) 
BAO_0000357

>  <data_validity_description>  (254) 
None

>  <activity_id>  (254) 
1163224

>  <standard_type>  (254) 
IC50

>  <target_chembl_id>  (254) 
CHEMBL205

>  <data_validity_comment>  (254) 
None

>  <published_value>  (254) 
626

>  <document_year>  (254) 
1994

>  <target_pref_name>  (254) 
Carbonic anhydrase II

>  <assay_chembl_id>  (254) 
CHEMBL656581

>  <standard_relation>  (254) 
=

>  <assay_description>  (254) 
Activity against human carbonic anhydrase II

>  <published_relation>  (254) 
=

>  <standard_value>  (254) 
626

>  <qudt_units>  (254) 
http://www.openphacts.org/units/Nanomolar

>  <target_tax_id>  (254) 
9606

>  <bao_label>  (254) 
single protein format

>  <published_units>  (254) 
nM

>  <pchembl_value>  (254) 
6.2

>  <published_type>  (254) 
IC50

>  <activity_comment>  (254) 
None

$$$$

     RDKit          

 18 18  0  0  0  0  0  0  0  0999 V2000
    0.0000    0.0000    0.0000 C   0  0  0  0  0  0  0  0  0  0  0  0
    0.0000    0.0000    0.0000 C   0  0  0  0  0  0  0  0  0  0  0  0
    0.0000    0.0000    0.0000 C   0  0  0  0  0  0  0  0  0  0  0  0
    0.0000    0.0000    0.0000 C   0  0  0  0  0  0  0  0  0  0  0  0
    0.0000    0.0000    0.0000 C   0  0  0  0  0  0  0  0  0  0  0  0
    0.0000    0.0000    0.0000 C   0  0  0  0  0  0  0  0  0  0  0  0
    0.0000    0.0000    0.0000 C   0  0  0  0  0  0  0  0  0  0  0  0
    0.0000    0.0000    0.0000 N   0  0  0  0  0  0  0  0  0  0  0  0
    0.0000    0.0000    0.0000 O   0  0  0  0  0  0  0  0  0  0  0  0
    0.0000    0.0000    0.0000 C   0  0  0  0  0  0  0  0  0  0  0  0
    0.0000    0.0000    0.0000 C   0  0  0  0  0  0  0  0  0  0  0  0
    0.0000    0.0000    0.0000 S   0  0  0  0  0  0  0  0  0  0  0  0
    0.0000    0.0000    0.0000 C   0  0  0  0  0  0  0  0  0  0  0  0
    0.0000    0.0000    0.0000 C   0  0  0  0  0  0  0  0  0  0  0  0
    0.0000    0.0000    0.0000 S   0  0  0  0  0  0  0  0  0  0  0  0
    0.0000    0.0000    0.0000 O   0  0  0  0  0  0  0  0  0  0  0  0
    0.0000    0.0000    0.0000 O   0  0  0  0  0  0  0  0  0  0  0  0
    0.0000    0.0000    0.0000 N   0  0  0  0  0  0  0  0  0  0  0  0
  1  2  1  0
  2  3  1  0
  3  4  1  0
  4  5  1  0
  5  6  1  0
  6  7  1  0
  7  8  2  0
  8  9  1  0
  7 10  1  0
 10 11  2  0
 11 12  1  0
 12 13  1  0
 13 14  2  0
 13 15  1  0
 15 16  2  0
 15 17  2  0
 15 18  1  0
 14 10  1  0
M  END
>  <pIC50>  (255) 
8.24

>  <ChEMBL_ID>  (255) 
CHEMBL42425

>  <document_journal>  (255) 
J. Med. Chem.

>  <bao_endpoint>  (255) 
BAO_0000190

>  <potential_duplicate>  (255) 
False

>  <uo_units>  (255) 
UO_0000065

>  <canonical_smiles>  (255) 
CCCCCC\C(=N/O)\c1csc(c1)S(=O)(=O)N

>  <parent_molecule_chembl_id>  (255) 
CHEMBL42425

>  <assay_type>  (255) 
B

>  <src_id>  (255) 
1

>  <ligand_efficiency>  (255) 
{u'le': u'0.62', u'bei': u'28.36', u'sei': u'6.37', u'lle': u'5.62'}

>  <standard_flag>  (255) 
True

>  <molecule_chembl_id>  (255) 
CHEMBL42425

>  <target_organism>  (255) 
Homo sapiens

>  <standard_units>  (255) 
nM

>  <record_id>  (255) 
71493

>  <document_chembl_id>  (255) 
CHEMBL1127528

>  <bao_format>  (255) 
BAO_0000357

>  <data_validity_description>  (255) 
None

>  <activity_id>  (255) 
1163233

>  <standard_type>  (255) 
IC50

>  <target_chembl_id>  (255) 
CHEMBL205

>  <data_validity_comment>  (255) 
None

>  <published_value>  (255) 
5.8

>  <document_year>  (255) 
1994

>  <target_pref_name>  (255) 
Carbonic anhydrase II

>  <assay_chembl_id>  (255) 
CHEMBL656581

>  <standard_relation>  (255) 
=

>  <assay_description>  (255) 
Activity against human carbonic anhydrase II

>  <published_relation>  (255) 
=

>  <standard_value>  (255) 
5.8

>  <qudt_units>  (255) 
http://www.openphacts.org/units/Nanomolar

>  <target_tax_id>  (255) 
9606

>  <bao_label>  (255) 
single protein format

>  <published_units>  (255) 
nM

>  <pchembl_value>  (255) 
8.24

>  <published_type>  (255) 
IC50

>  <activity_comment>  (255) 
None

$$$$

     RDKit          

 12 12  0  0  0  0  0  0  0  0999 V2000
    0.0000    0.0000    0.0000 C   0  0  0  0  0  0  0  0  0  0  0  0
    0.0000    0.0000    0.0000 C   0  0  0  0  0  0  0  0  0  0  0  0
    0.0000    0.0000    0.0000 O   0  0  0  0  0  0  0  0  0  0  0  0
    0.0000    0.0000    0.0000 C   0  0  0  0  0  0  0  0  0  0  0  0
    0.0000    0.0000    0.0000 C   0  0  0  0  0  0  0  0  0  0  0  0
    0.0000    0.0000    0.0000 S   0  0  0  0  0  0  0  0  0  0  0  0
    0.0000    0.0000    0.0000 C   0  0  0  0  0  0  0  0  0  0  0  0
    0.0000    0.0000    0.0000 C   0  0  0  0  0  0  0  0  0  0  0  0
    0.0000    0.0000    0.0000 S   0  0  0  0  0  0  0  0  0  0  0  0
    0.0000    0.0000    0.0000 O   0  0  0  0  0  0  0  0  0  0  0  0
    0.0000    0.0000    0.0000 O   0  0  0  0  0  0  0  0  0  0  0  0
    0.0000    0.0000    0.0000 N   0  0  0  0  0  0  0  0  0  0  0  0
  1  2  1  0
  2  3  2  0
  2  4  1  0
  4  5  2  0
  5  6  1  0
  6  7  1  0
  7  8  2  0
  7  9  1  0
  9 10  2  0
  9 11  2  0
  9 12  1  0
  8  4  1  0
M  END
>  <pIC50>  (256) 
7.8

>  <ChEMBL_ID>  (256) 
CHEMBL287738

>  <document_journal>  (256) 
J. Med. Chem.

>  <bao_endpoint>  (256) 
BAO_0000190

>  <potential_duplicate>  (256) 
False

>  <uo_units>  (256) 
UO_0000065

>  <canonical_smiles>  (256) 
CC(=O)c1csc(c1)S(=O)(=O)N

>  <parent_molecule_chembl_id>  (256) 
CHEMBL287738

>  <assay_type>  (256) 
B

>  <src_id>  (256) 
1

>  <ligand_efficiency>  (256) 
{u'le': u'0.89', u'bei': u'37.98', u'sei': u'6.85', u'lle': u'7.74'}

>  <standard_flag>  (256) 
True

>  <molecule_chembl_id>  (256) 
CHEMBL287738

>  <target_organism>  (256) 
Homo sapiens

>  <standard_units>  (256) 
nM

>  <record_id>  (256) 
71499

>  <document_chembl_id>  (256) 
CHEMBL1127528

>  <bao_format>  (256) 
BAO_0000357

>  <data_validity_description>  (256) 
None

>  <activity_id>  (256) 
1169881

>  <standard_type>  (256) 
IC50

>  <target_chembl_id>  (256) 
CHEMBL205

>  <data_validity_comment>  (256) 
None

>  <published_value>  (256) 
16

>  <document_year>  (256) 
1994

>  <target_pref_name>  (256) 
Carbonic anhydrase II

>  <assay_chembl_id>  (256) 
CHEMBL656581

>  <standard_relation>  (256) 
=

>  <assay_description>  (256) 
Activity against human carbonic anhydrase II

>  <published_relation>  (256) 
=

>  <standard_value>  (256) 
16

>  <qudt_units>  (256) 
http://www.openphacts.org/units/Nanomolar

>  <target_tax_id>  (256) 
9606

>  <bao_label>  (256) 
single protein format

>  <published_units>  (256) 
nM

>  <pchembl_value>  (256) 
7.8

>  <published_type>  (256) 
IC50

>  <activity_comment>  (256) 
None

$$$$

     RDKit          

 17 17  0  0  0  0  0  0  0  0999 V2000
    0.0000    0.0000    0.0000 C   0  0  0  0  0  0  0  0  0  0  0  0
    0.0000    0.0000    0.0000 C   0  0  0  0  0  0  0  0  0  0  0  0
    0.0000    0.0000    0.0000 C   0  0  0  0  0  0  0  0  0  0  0  0
    0.0000    0.0000    0.0000 C   0  0  0  0  0  0  0  0  0  0  0  0
    0.0000    0.0000    0.0000 C   0  0  0  0  0  0  0  0  0  0  0  0
    0.0000    0.0000    0.0000 C   0  0  0  0  0  0  0  0  0  0  0  0
    0.0000    0.0000    0.0000 C   0  0  0  0  0  0  0  0  0  0  0  0
    0.0000    0.0000    0.0000 N   0  0  0  0  0  0  0  0  0  0  0  0
    0.0000    0.0000    0.0000 C   0  0  0  0  0  0  0  0  0  0  0  0
    0.0000    0.0000    0.0000 C   0  0  0  0  0  0  0  0  0  0  0  0
    0.0000    0.0000    0.0000 S   0  0  0  0  0  0  0  0  0  0  0  0
    0.0000    0.0000    0.0000 C   0  0  0  0  0  0  0  0  0  0  0  0
    0.0000    0.0000    0.0000 C   0  0  0  0  0  0  0  0  0  0  0  0
    0.0000    0.0000    0.0000 S   0  0  0  0  0  0  0  0  0  0  0  0
    0.0000    0.0000    0.0000 O   0  0  0  0  0  0  0  0  0  0  0  0
    0.0000    0.0000    0.0000 O   0  0  0  0  0  0  0  0  0  0  0  0
    0.0000    0.0000    0.0000 N   0  0  0  0  0  0  0  0  0  0  0  0
  1  2  1  0
  2  3  1  0
  3  4  1  0
  4  5  1  0
  5  6  1  0
  6  7  1  0
  7  8  1  0
  7  9  1  0
  9 10  2  0
 10 11  1  0
 11 12  1  0
 12 13  2  0
 12 14  1  0
 14 15  2  0
 14 16  2  0
 14 17  1  0
 13  9  1  0
M  END
>  <pIC50>  (257) 
6.8

>  <ChEMBL_ID>  (257) 
CHEMBL43047

>  <document_journal>  (257) 
J. Med. Chem.

>  <bao_endpoint>  (257) 
BAO_0000190

>  <potential_duplicate>  (257) 
False

>  <uo_units>  (257) 
UO_0000065

>  <canonical_smiles>  (257) 
CCCCCCC(N)c1csc(c1)S(=O)(=O)N

>  <parent_molecule_chembl_id>  (257) 
CHEMBL43047

>  <assay_type>  (257) 
B

>  <src_id>  (257) 
1

>  <ligand_efficiency>  (257) 
{u'le': u'0.55', u'bei': u'24.59', u'sei': u'5.53', u'lle': u'4.65'}

>  <standard_flag>  (257) 
True

>  <molecule_chembl_id>  (257) 
CHEMBL43047

>  <target_organism>  (257) 
Homo sapiens

>  <standard_units>  (257) 
nM

>  <record_id>  (257) 
71486

>  <document_chembl_id>  (257) 
CHEMBL1127528

>  <bao_format>  (257) 
BAO_0000357

>  <data_validity_description>  (257) 
None

>  <activity_id>  (257) 
1171108

>  <standard_type>  (257) 
IC50

>  <target_chembl_id>  (257) 
CHEMBL205

>  <data_validity_comment>  (257) 
None

>  <published_value>  (257) 
160

>  <document_year>  (257) 
1994

>  <target_pref_name>  (257) 
Carbonic anhydrase II

>  <assay_chembl_id>  (257) 
CHEMBL656581

>  <standard_relation>  (257) 
=

>  <assay_description>  (257) 
Activity against human carbonic anhydrase II

>  <published_relation>  (257) 
=

>  <standard_value>  (257) 
160

>  <qudt_units>  (257) 
http://www.openphacts.org/units/Nanomolar

>  <target_tax_id>  (257) 
9606

>  <bao_label>  (257) 
single protein format

>  <published_units>  (257) 
nM

>  <pchembl_value>  (257) 
6.8

>  <published_type>  (257) 
IC50

>  <activity_comment>  (257) 
None

$$$$

     RDKit          

 17 17  0  0  0  0  0  0  0  0999 V2000
    0.0000    0.0000    0.0000 C   0  0  0  0  0  0  0  0  0  0  0  0
    0.0000    0.0000    0.0000 C   0  0  0  0  0  0  0  0  0  0  0  0
    0.0000    0.0000    0.0000 C   0  0  0  0  0  0  0  0  0  0  0  0
    0.0000    0.0000    0.0000 C   0  0  0  0  0  0  0  0  0  0  0  0
    0.0000    0.0000    0.0000 C   0  0  0  0  0  0  0  0  0  0  0  0
    0.0000    0.0000    0.0000 C   0  0  0  0  0  0  0  0  0  0  0  0
    0.0000    0.0000    0.0000 C   0  0  0  0  0  0  0  0  0  0  0  0
    0.0000    0.0000    0.0000 O   0  0  0  0  0  0  0  0  0  0  0  0
    0.0000    0.0000    0.0000 C   0  0  0  0  0  0  0  0  0  0  0  0
    0.0000    0.0000    0.0000 C   0  0  0  0  0  0  0  0  0  0  0  0
    0.0000    0.0000    0.0000 S   0  0  0  0  0  0  0  0  0  0  0  0
    0.0000    0.0000    0.0000 C   0  0  0  0  0  0  0  0  0  0  0  0
    0.0000    0.0000    0.0000 C   0  0  0  0  0  0  0  0  0  0  0  0
    0.0000    0.0000    0.0000 S   0  0  0  0  0  0  0  0  0  0  0  0
    0.0000    0.0000    0.0000 O   0  0  0  0  0  0  0  0  0  0  0  0
    0.0000    0.0000    0.0000 O   0  0  0  0  0  0  0  0  0  0  0  0
    0.0000    0.0000    0.0000 N   0  0  0  0  0  0  0  0  0  0  0  0
  1  2  1  0
  2  3  1  0
  3  4  1  0
  4  5  1  0
  5  6  1  0
  6  7  1  0
  7  8  1  0
  7  9  1  0
  9 10  2  0
 10 11  1  0
 11 12  1  0
 12 13  2  0
 12 14  1  0
 14 15  2  0
 14 16  2  0
 14 17  1  0
 13  9  1  0
M  END
>  <pIC50>  (258) 
7.89

>  <ChEMBL_ID>  (258) 
CHEMBL44335

>  <document_journal>  (258) 
J. Med. Chem.

>  <bao_endpoint>  (258) 
BAO_0000190

>  <potential_duplicate>  (258) 
False

>  <uo_units>  (258) 
UO_0000065

>  <canonical_smiles>  (258) 
CCCCCCC(O)c1csc(c1)S(=O)(=O)N

>  <parent_molecule_chembl_id>  (258) 
CHEMBL44335

>  <assay_type>  (258) 
B

>  <src_id>  (258) 
1

>  <ligand_efficiency>  (258) 
{u'le': u'0.63', u'bei': u'28.43', u'sei': u'6.74', u'lle': u'5.45'}

>  <standard_flag>  (258) 
True

>  <molecule_chembl_id>  (258) 
CHEMBL44335

>  <target_organism>  (258) 
Homo sapiens

>  <standard_units>  (258) 
nM

>  <record_id>  (258) 
71495

>  <document_chembl_id>  (258) 
CHEMBL1127528

>  <bao_format>  (258) 
BAO_0000357

>  <data_validity_description>  (258) 
None

>  <activity_id>  (258) 
1177629

>  <standard_type>  (258) 
IC50

>  <target_chembl_id>  (258) 
CHEMBL205

>  <data_validity_comment>  (258) 
None

>  <published_value>  (258) 
13

>  <document_year>  (258) 
1994

>  <target_pref_name>  (258) 
Carbonic anhydrase II

>  <assay_chembl_id>  (258) 
CHEMBL656581

>  <standard_relation>  (258) 
=

>  <assay_description>  (258) 
Activity against human carbonic anhydrase II

>  <published_relation>  (258) 
=

>  <standard_value>  (258) 
13

>  <qudt_units>  (258) 
http://www.openphacts.org/units/Nanomolar

>  <target_tax_id>  (258) 
9606

>  <bao_label>  (258) 
single protein format

>  <published_units>  (258) 
nM

>  <pchembl_value>  (258) 
7.89

>  <published_type>  (258) 
IC50

>  <activity_comment>  (258) 
None

$$$$

     RDKit          

 15 15  0  0  0  0  0  0  0  0999 V2000
    0.0000    0.0000    0.0000 C   0  0  0  0  0  0  0  0  0  0  0  0
    0.0000    0.0000    0.0000 C   0  0  0  0  0  0  0  0  0  0  0  0
    0.0000    0.0000    0.0000 C   0  0  0  0  0  0  0  0  0  0  0  0
    0.0000    0.0000    0.0000 C   0  0  0  0  0  0  0  0  0  0  0  0
    0.0000    0.0000    0.0000 C   0  0  0  0  0  0  0  0  0  0  0  0
    0.0000    0.0000    0.0000 O   0  0  0  0  0  0  0  0  0  0  0  0
    0.0000    0.0000    0.0000 C   0  0  0  0  0  0  0  0  0  0  0  0
    0.0000    0.0000    0.0000 C   0  0  0  0  0  0  0  0  0  0  0  0
    0.0000    0.0000    0.0000 S   0  0  0  0  0  0  0  0  0  0  0  0
    0.0000    0.0000    0.0000 C   0  0  0  0  0  0  0  0  0  0  0  0
    0.0000    0.0000    0.0000 C   0  0  0  0  0  0  0  0  0  0  0  0
    0.0000    0.0000    0.0000 S   0  0  0  0  0  0  0  0  0  0  0  0
    0.0000    0.0000    0.0000 O   0  0  0  0  0  0  0  0  0  0  0  0
    0.0000    0.0000    0.0000 O   0  0  0  0  0  0  0  0  0  0  0  0
    0.0000    0.0000    0.0000 N   0  0  0  0  0  0  0  0  0  0  0  0
  1  2  1  0
  2  3  1  0
  3  4  1  0
  4  5  1  0
  5  6  2  0
  5  7  1  0
  7  8  2  0
  8  9  1  0
  9 10  1  0
 10 11  2  0
 10 12  1  0
 12 13  2  0
 12 14  2  0
 12 15  1  0
 11  7  1  0
M  END
>  <pIC50>  (259) 
8.2

>  <ChEMBL_ID>  (259) 
CHEMBL297821

>  <document_journal>  (259) 
J. Med. Chem.

>  <bao_endpoint>  (259) 
BAO_0000190

>  <potential_duplicate>  (259) 
False

>  <uo_units>  (259) 
UO_0000065

>  <canonical_smiles>  (259) 
CCCCC(=O)c1csc(c1)S(=O)(=O)N

>  <parent_molecule_chembl_id>  (259) 
CHEMBL297821

>  <assay_type>  (259) 
B

>  <src_id>  (259) 
1

>  <ligand_efficiency>  (259) 
{u'le': u'0.75', u'bei': u'33.16', u'sei': u'7.2', u'lle': u'6.56'}

>  <standard_flag>  (259) 
True

>  <molecule_chembl_id>  (259) 
CHEMBL297821

>  <target_organism>  (259) 
Homo sapiens

>  <standard_units>  (259) 
nM

>  <record_id>  (259) 
71490

>  <document_chembl_id>  (259) 
CHEMBL1127528

>  <bao_format>  (259) 
BAO_0000357

>  <data_validity_description>  (259) 
None

>  <activity_id>  (259) 
1177632

>  <standard_type>  (259) 
IC50

>  <target_chembl_id>  (259) 
CHEMBL205

>  <data_validity_comment>  (259) 
None

>  <published_value>  (259) 
6.3

>  <document_year>  (259) 
1994

>  <target_pref_name>  (259) 
Carbonic anhydrase II

>  <assay_chembl_id>  (259) 
CHEMBL656581

>  <standard_relation>  (259) 
=

>  <assay_description>  (259) 
Activity against human carbonic anhydrase II

>  <published_relation>  (259) 
=

>  <standard_value>  (259) 
6.3

>  <qudt_units>  (259) 
http://www.openphacts.org/units/Nanomolar

>  <target_tax_id>  (259) 
9606

>  <bao_label>  (259) 
single protein format

>  <published_units>  (259) 
nM

>  <pchembl_value>  (259) 
8.2

>  <published_type>  (259) 
IC50

>  <activity_comment>  (259) 
None

$$$$

     RDKit          

 16 16  0  0  0  0  0  0  0  0999 V2000
    0.0000    0.0000    0.0000 C   0  0  0  0  0  0  0  0  0  0  0  0
    0.0000    0.0000    0.0000 C   0  0  0  0  0  0  0  0  0  0  0  0
    0.0000    0.0000    0.0000 C   0  0  0  0  0  0  0  0  0  0  0  0
    0.0000    0.0000    0.0000 C   0  0  0  0  0  0  0  0  0  0  0  0
    0.0000    0.0000    0.0000 C   0  0  0  0  0  0  0  0  0  0  0  0
    0.0000    0.0000    0.0000 N   0  0  0  0  0  0  0  0  0  0  0  0
    0.0000    0.0000    0.0000 O   0  0  0  0  0  0  0  0  0  0  0  0
    0.0000    0.0000    0.0000 C   0  0  0  0  0  0  0  0  0  0  0  0
    0.0000    0.0000    0.0000 C   0  0  0  0  0  0  0  0  0  0  0  0
    0.0000    0.0000    0.0000 S   0  0  0  0  0  0  0  0  0  0  0  0
    0.0000    0.0000    0.0000 C   0  0  0  0  0  0  0  0  0  0  0  0
    0.0000    0.0000    0.0000 C   0  0  0  0  0  0  0  0  0  0  0  0
    0.0000    0.0000    0.0000 S   0  0  0  0  0  0  0  0  0  0  0  0
    0.0000    0.0000    0.0000 O   0  0  0  0  0  0  0  0  0  0  0  0
    0.0000    0.0000    0.0000 O   0  0  0  0  0  0  0  0  0  0  0  0
    0.0000    0.0000    0.0000 N   0  0  0  0  0  0  0  0  0  0  0  0
  1  2  1  0
  2  3  1  0
  3  4  1  0
  4  5  1  0
  5  6  2  0
  6  7  1  0
  5  8  1  0
  8  9  2  0
  9 10  1  0
 10 11  1  0
 11 12  2  0
 11 13  1  0
 13 14  2  0
 13 15  2  0
 13 16  1  0
 12  8  1  0
M  END
>  <pIC50>  (260) 
7.82

>  <ChEMBL_ID>  (260) 
CHEMBL288606

>  <document_journal>  (260) 
J. Med. Chem.

>  <bao_endpoint>  (260) 
BAO_0000190

>  <potential_duplicate>  (260) 
False

>  <uo_units>  (260) 
UO_0000065

>  <canonical_smiles>  (260) 
CCCC\C(=N/O)\c1csc(c1)S(=O)(=O)N

>  <parent_molecule_chembl_id>  (260) 
CHEMBL288606

>  <assay_type>  (260) 
B

>  <src_id>  (260) 
1

>  <ligand_efficiency>  (260) 
{u'le': u'0.67', u'bei': u'29.82', u'sei': u'6.05', u'lle': u'6.11'}

>  <standard_flag>  (260) 
True

>  <molecule_chembl_id>  (260) 
CHEMBL288606

>  <target_organism>  (260) 
Homo sapiens

>  <standard_units>  (260) 
nM

>  <record_id>  (260) 
71488

>  <document_chembl_id>  (260) 
CHEMBL1127528

>  <bao_format>  (260) 
BAO_0000357

>  <data_validity_description>  (260) 
None

>  <activity_id>  (260) 
1180236

>  <standard_type>  (260) 
IC50

>  <target_chembl_id>  (260) 
CHEMBL205

>  <data_validity_comment>  (260) 
None

>  <published_value>  (260) 
15

>  <document_year>  (260) 
1994

>  <target_pref_name>  (260) 
Carbonic anhydrase II

>  <assay_chembl_id>  (260) 
CHEMBL656581

>  <standard_relation>  (260) 
=

>  <assay_description>  (260) 
Activity against human carbonic anhydrase II

>  <published_relation>  (260) 
=

>  <standard_value>  (260) 
15

>  <qudt_units>  (260) 
http://www.openphacts.org/units/Nanomolar

>  <target_tax_id>  (260) 
9606

>  <bao_label>  (260) 
single protein format

>  <published_units>  (260) 
nM

>  <pchembl_value>  (260) 
7.82

>  <published_type>  (260) 
IC50

>  <activity_comment>  (260) 
None

$$$$

     RDKit          

 19 20  0  0  0  0  0  0  0  0999 V2000
    0.0000    0.0000    0.0000 C   0  0  0  0  0  0  0  0  0  0  0  0
    0.0000    0.0000    0.0000 C   0  0  0  0  0  0  0  0  0  0  0  0
    0.0000    0.0000    0.0000 O   0  0  0  0  0  0  0  0  0  0  0  0
    0.0000    0.0000    0.0000 C   0  0  0  0  0  0  0  0  0  0  0  0
    0.0000    0.0000    0.0000 C   0  0  0  0  0  0  0  0  0  0  0  0
    0.0000    0.0000    0.0000 N   0  0  0  0  0  0  0  0  0  0  0  0
    0.0000    0.0000    0.0000 C   0  0  0  0  0  0  0  0  0  0  0  0
    0.0000    0.0000    0.0000 C   0  0  0  0  0  0  0  0  0  0  0  0
    0.0000    0.0000    0.0000 C   0  0  0  0  0  0  0  0  0  0  0  0
    0.0000    0.0000    0.0000 C   0  0  0  0  0  0  0  0  0  0  0  0
    0.0000    0.0000    0.0000 C   0  0  0  0  0  0  0  0  0  0  0  0
    0.0000    0.0000    0.0000 C   0  0  0  0  0  0  0  0  0  0  0  0
    0.0000    0.0000    0.0000 O   0  0  0  0  0  0  0  0  0  0  0  0
    0.0000    0.0000    0.0000 C   0  0  0  0  0  0  0  0  0  0  0  0
    0.0000    0.0000    0.0000 S   0  0  0  0  0  0  0  0  0  0  0  0
    0.0000    0.0000    0.0000 S   0  0  0  0  0  0  0  0  0  0  0  0
    0.0000    0.0000    0.0000 O   0  0  0  0  0  0  0  0  0  0  0  0
    0.0000    0.0000    0.0000 O   0  0  0  0  0  0  0  0  0  0  0  0
    0.0000    0.0000    0.0000 N   0  0  0  0  0  0  0  0  0  0  0  0
  1  2  1  0
  2  3  1  0
  3  4  1  0
  4  5  1  0
  5  6  1  0
  6  7  1  0
  7  8  1  0
  8  9  2  0
  9 10  1  0
 10 11  1  0
 11 12  2  0
 12 13  1  0
 13 14  1  0
 14 15  1  0
 12 16  1  0
 16 17  2  0
 16 18  2  0
 16 19  1  0
 15  8  1  0
 14 10  2  0
M  END
>  <pIC50>  (261) 
8.1

>  <ChEMBL_ID>  (261) 
CHEMBL103271

>  <document_journal>  (261) 
J. Med. Chem.

>  <bao_endpoint>  (261) 
BAO_0000190

>  <potential_duplicate>  (261) 
False

>  <uo_units>  (261) 
UO_0000065

>  <canonical_smiles>  (261) 
CCOCCNCc1cc2cc(oc2s1)S(=O)(=O)N

>  <parent_molecule_chembl_id>  (261) 
CHEMBL103271

>  <assay_type>  (261) 
B

>  <src_id>  (261) 
1

>  <ligand_efficiency>  (261) 
{u'le': u'0.58', u'bei': u'26.6', u'sei': u'6.17', u'lle': u'7.76'}

>  <standard_flag>  (261) 
True

>  <molecule_chembl_id>  (261) 
CHEMBL103271

>  <target_organism>  (261) 
Homo sapiens

>  <standard_units>  (261) 
nM

>  <record_id>  (261) 
192196

>  <document_chembl_id>  (261) 
CHEMBL1125519

>  <bao_format>  (261) 
BAO_0000357

>  <data_validity_description>  (261) 
None

>  <activity_id>  (261) 
1227908

>  <standard_type>  (261) 
IC50

>  <target_chembl_id>  (261) 
CHEMBL205

>  <data_validity_comment>  (261) 
None

>  <published_value>  (261) 
8E-9

>  <document_year>  (261) 
1992

>  <target_pref_name>  (261) 
Carbonic anhydrase II

>  <assay_chembl_id>  (261) 
CHEMBL656568

>  <standard_relation>  (261) 
=

>  <assay_description>  (261) 
Inhibition of human erythrocyte carbonic anhydrase II

>  <published_relation>  (261) 
=

>  <standard_value>  (261) 
8

>  <qudt_units>  (261) 
http://www.openphacts.org/units/Nanomolar

>  <target_tax_id>  (261) 
9606

>  <bao_label>  (261) 
single protein format

>  <published_units>  (261) 
M

>  <pchembl_value>  (261) 
8.1

>  <published_type>  (261) 
I50

>  <activity_comment>  (261) 
None

$$$$

     RDKit          

 22 23  0  0  0  0  0  0  0  0999 V2000
    0.0000    0.0000    0.0000 C   0  0  0  0  0  0  0  0  0  0  0  0
    0.0000    0.0000    0.0000 O   0  0  0  0  0  0  0  0  0  0  0  0
    0.0000    0.0000    0.0000 C   0  0  0  0  0  0  0  0  0  0  0  0
    0.0000    0.0000    0.0000 C   0  0  0  0  0  0  0  0  0  0  0  0
    0.0000    0.0000    0.0000 O   0  0  0  0  0  0  0  0  0  0  0  0
    0.0000    0.0000    0.0000 C   0  0  0  0  0  0  0  0  0  0  0  0
    0.0000    0.0000    0.0000 C   0  0  0  0  0  0  0  0  0  0  0  0
    0.0000    0.0000    0.0000 C   0  0  0  0  0  0  0  0  0  0  0  0
    0.0000    0.0000    0.0000 N   0  0  0  0  0  0  0  0  0  0  0  0
    0.0000    0.0000    0.0000 C   0  0  0  0  0  0  0  0  0  0  0  0
    0.0000    0.0000    0.0000 C   0  0  0  0  0  0  0  0  0  0  0  0
    0.0000    0.0000    0.0000 C   0  0  0  0  0  0  0  0  0  0  0  0
    0.0000    0.0000    0.0000 C   0  0  0  0  0  0  0  0  0  0  0  0
    0.0000    0.0000    0.0000 C   0  0  0  0  0  0  0  0  0  0  0  0
    0.0000    0.0000    0.0000 C   0  0  0  0  0  0  0  0  0  0  0  0
    0.0000    0.0000    0.0000 O   0  0  0  0  0  0  0  0  0  0  0  0
    0.0000    0.0000    0.0000 C   0  0  0  0  0  0  0  0  0  0  0  0
    0.0000    0.0000    0.0000 S   0  0  0  0  0  0  0  0  0  0  0  0
    0.0000    0.0000    0.0000 S   0  0  0  0  0  0  0  0  0  0  0  0
    0.0000    0.0000    0.0000 O   0  0  0  0  0  0  0  0  0  0  0  0
    0.0000    0.0000    0.0000 O   0  0  0  0  0  0  0  0  0  0  0  0
    0.0000    0.0000    0.0000 N   0  0  0  0  0  0  0  0  0  0  0  0
  1  2  1  0
  2  3  1  0
  3  4  1  0
  4  5  1  0
  5  6  1  0
  6  7  1  0
  7  8  1  0
  8  9  1  0
  9 10  1  0
 10 11  1  0
 11 12  2  0
 12 13  1  0
 13 14  1  0
 14 15  2  0
 15 16  1  0
 16 17  1  0
 17 18  1  0
 15 19  1  0
 19 20  2  0
 19 21  2  0
 19 22  1  0
 18 11  1  0
 17 13  2  0
M  END
>  <pIC50>  (262) 
7.85

>  <ChEMBL_ID>  (262) 
CHEMBL101792

>  <document_journal>  (262) 
J. Med. Chem.

>  <bao_endpoint>  (262) 
BAO_0000190

>  <potential_duplicate>  (262) 
False

>  <uo_units>  (262) 
UO_0000065

>  <canonical_smiles>  (262) 
COCCOCCCNCc1cc2cc(oc2s1)S(=O)(=O)N

>  <parent_molecule_chembl_id>  (262) 
CHEMBL101792

>  <assay_type>  (262) 
B

>  <src_id>  (262) 
1

>  <ligand_efficiency>  (262) 
{u'le': u'0.49', u'bei': u'22.54', u'sei': u'5.59', u'lle': u'7.93'}

>  <standard_flag>  (262) 
True

>  <molecule_chembl_id>  (262) 
CHEMBL101792

>  <target_organism>  (262) 
Homo sapiens

>  <standard_units>  (262) 
nM

>  <record_id>  (262) 
192200

>  <document_chembl_id>  (262) 
CHEMBL1125519

>  <bao_format>  (262) 
BAO_0000357

>  <data_validity_description>  (262) 
None

>  <activity_id>  (262) 
1229183

>  <standard_type>  (262) 
IC50

>  <target_chembl_id>  (262) 
CHEMBL205

>  <data_validity_comment>  (262) 
None

>  <published_value>  (262) 
1.4E-8

>  <document_year>  (262) 
1992

>  <target_pref_name>  (262) 
Carbonic anhydrase II

>  <assay_chembl_id>  (262) 
CHEMBL656568

>  <standard_relation>  (262) 
=

>  <assay_description>  (262) 
Inhibition of human erythrocyte carbonic anhydrase II

>  <published_relation>  (262) 
=

>  <standard_value>  (262) 
14

>  <qudt_units>  (262) 
http://www.openphacts.org/units/Nanomolar

>  <target_tax_id>  (262) 
9606

>  <bao_label>  (262) 
single protein format

>  <published_units>  (262) 
M

>  <pchembl_value>  (262) 
7.85

>  <published_type>  (262) 
I50

>  <activity_comment>  (262) 
None

$$$$

     RDKit          

 22 23  0  0  0  0  0  0  0  0999 V2000
    0.0000    0.0000    0.0000 C   0  0  0  0  0  0  0  0  0  0  0  0
    0.0000    0.0000    0.0000 O   0  0  0  0  0  0  0  0  0  0  0  0
    0.0000    0.0000    0.0000 C   0  0  0  0  0  0  0  0  0  0  0  0
    0.0000    0.0000    0.0000 C   0  0  0  0  0  0  0  0  0  0  0  0
    0.0000    0.0000    0.0000 N   0  0  0  0  0  0  0  0  0  0  0  0
    0.0000    0.0000    0.0000 C   0  0  0  0  0  0  0  0  0  0  0  0
    0.0000    0.0000    0.0000 C   0  0  0  0  0  0  0  0  0  0  0  0
    0.0000    0.0000    0.0000 O   0  0  0  0  0  0  0  0  0  0  0  0
    0.0000    0.0000    0.0000 C   0  0  0  0  0  0  0  0  0  0  0  0
    0.0000    0.0000    0.0000 C   0  0  0  0  0  0  0  0  0  0  0  0
    0.0000    0.0000    0.0000 C   0  0  0  0  0  0  0  0  0  0  0  0
    0.0000    0.0000    0.0000 C   0  0  0  0  0  0  0  0  0  0  0  0
    0.0000    0.0000    0.0000 C   0  0  0  0  0  0  0  0  0  0  0  0
    0.0000    0.0000    0.0000 C   0  0  0  0  0  0  0  0  0  0  0  0
    0.0000    0.0000    0.0000 C   0  0  0  0  0  0  0  0  0  0  0  0
    0.0000    0.0000    0.0000 O   0  0  0  0  0  0  0  0  0  0  0  0
    0.0000    0.0000    0.0000 C   0  0  0  0  0  0  0  0  0  0  0  0
    0.0000    0.0000    0.0000 S   0  0  0  0  0  0  0  0  0  0  0  0
    0.0000    0.0000    0.0000 S   0  0  0  0  0  0  0  0  0  0  0  0
    0.0000    0.0000    0.0000 O   0  0  0  0  0  0  0  0  0  0  0  0
    0.0000    0.0000    0.0000 O   0  0  0  0  0  0  0  0  0  0  0  0
    0.0000    0.0000    0.0000 N   0  0  0  0  0  0  0  0  0  0  0  0
  1  2  1  0
  2  3  1  0
  3  4  1  0
  4  5  1  0
  5  6  1  0
  6  7  1  0
  7  8  1  0
  8  9  1  0
  5 10  1  0
 10 11  1  0
 11 12  2  0
 12 13  1  0
 13 14  1  0
 14 15  2  0
 15 16  1  0
 16 17  1  0
 17 18  1  0
 15 19  1  0
 19 20  2  0
 19 21  2  0
 19 22  1  0
 18 11  1  0
 17 13  2  0
M  END
>  <pIC50>  (263) 
8.29

>  <ChEMBL_ID>  (263) 
CHEMBL103143

>  <document_journal>  (263) 
J. Med. Chem.

>  <bao_endpoint>  (263) 
BAO_0000190

>  <potential_duplicate>  (263) 
False

>  <uo_units>  (263) 
UO_0000065

>  <canonical_smiles>  (263) 
COCCN(CCOC)Cc1cc2cc(oc2s1)S(=O)(=O)N

>  <parent_molecule_chembl_id>  (263) 
CHEMBL103143

>  <assay_type>  (263) 
B

>  <src_id>  (263) 
1

>  <ligand_efficiency>  (263) 
{u'le': u'0.51', u'bei': u'23.8', u'sei': u'6.3', u'lle': u'7.9'}

>  <standard_flag>  (263) 
True

>  <molecule_chembl_id>  (263) 
CHEMBL103143

>  <target_organism>  (263) 
Homo sapiens

>  <standard_units>  (263) 
nM

>  <record_id>  (263) 
192203

>  <document_chembl_id>  (263) 
CHEMBL1125519

>  <bao_format>  (263) 
BAO_0000357

>  <data_validity_description>  (263) 
None

>  <activity_id>  (263) 
1235418

>  <standard_type>  (263) 
IC50

>  <target_chembl_id>  (263) 
CHEMBL205

>  <data_validity_comment>  (263) 
None

>  <published_value>  (263) 
5.1E-9

>  <document_year>  (263) 
1992

>  <target_pref_name>  (263) 
Carbonic anhydrase II

>  <assay_chembl_id>  (263) 
CHEMBL656568

>  <standard_relation>  (263) 
=

>  <assay_description>  (263) 
Inhibition of human erythrocyte carbonic anhydrase II

>  <published_relation>  (263) 
=

>  <standard_value>  (263) 
5.1

>  <qudt_units>  (263) 
http://www.openphacts.org/units/Nanomolar

>  <target_tax_id>  (263) 
9606

>  <bao_label>  (263) 
single protein format

>  <published_units>  (263) 
M

>  <pchembl_value>  (263) 
8.29

>  <published_type>  (263) 
I50

>  <activity_comment>  (263) 
None

$$$$

     RDKit          

 17 18  0  0  0  0  0  0  0  0999 V2000
    0.0000    0.0000    0.0000 C   0  0  0  0  0  0  0  0  0  0  0  0
    0.0000    0.0000    0.0000 C   0  0  0  0  0  0  0  0  0  0  0  0
    0.0000    0.0000    0.0000 C   0  0  0  0  0  0  0  0  0  0  0  0
    0.0000    0.0000    0.0000 N   0  0  0  0  0  0  0  0  0  0  0  0
    0.0000    0.0000    0.0000 C   0  0  0  0  0  0  0  0  0  0  0  0
    0.0000    0.0000    0.0000 C   0  0  0  0  0  0  0  0  0  0  0  0
    0.0000    0.0000    0.0000 C   0  0  0  0  0  0  0  0  0  0  0  0
    0.0000    0.0000    0.0000 C   0  0  0  0  0  0  0  0  0  0  0  0
    0.0000    0.0000    0.0000 C   0  0  0  0  0  0  0  0  0  0  0  0
    0.0000    0.0000    0.0000 C   0  0  0  0  0  0  0  0  0  0  0  0
    0.0000    0.0000    0.0000 O   0  0  0  0  0  0  0  0  0  0  0  0
    0.0000    0.0000    0.0000 C   0  0  0  0  0  0  0  0  0  0  0  0
    0.0000    0.0000    0.0000 S   0  0  0  0  0  0  0  0  0  0  0  0
    0.0000    0.0000    0.0000 S   0  0  0  0  0  0  0  0  0  0  0  0
    0.0000    0.0000    0.0000 O   0  0  0  0  0  0  0  0  0  0  0  0
    0.0000    0.0000    0.0000 O   0  0  0  0  0  0  0  0  0  0  0  0
    0.0000    0.0000    0.0000 N   0  0  0  0  0  0  0  0  0  0  0  0
  1  2  1  0
  2  3  1  0
  3  4  1  0
  4  5  1  0
  5  6  1  0
  6  7  2  0
  7  8  1  0
  8  9  1  0
  9 10  2  0
 10 11  1  0
 11 12  1  0
 12 13  1  0
 10 14  1  0
 14 15  2  0
 14 16  2  0
 14 17  1  0
 13  6  1  0
 12  8  2  0
M  END
>  <pIC50>  (264) 
8.1

>  <ChEMBL_ID>  (264) 
CHEMBL322014

>  <document_journal>  (264) 
J. Med. Chem.

>  <bao_endpoint>  (264) 
BAO_0000190

>  <potential_duplicate>  (264) 
False

>  <uo_units>  (264) 
UO_0000065

>  <canonical_smiles>  (264) 
CCCNCc1cc2cc(oc2s1)S(=O)(=O)N

>  <parent_molecule_chembl_id>  (264) 
CHEMBL322014

>  <assay_type>  (264) 
B

>  <src_id>  (264) 
1

>  <ligand_efficiency>  (264) 
{u'le': u'0.65', u'bei': u'29.51', u'sei': u'6.64', u'lle': u'7.11'}

>  <standard_flag>  (264) 
True

>  <molecule_chembl_id>  (264) 
CHEMBL322014

>  <target_organism>  (264) 
Homo sapiens

>  <standard_units>  (264) 
nM

>  <record_id>  (264) 
192206

>  <document_chembl_id>  (264) 
CHEMBL1125519

>  <bao_format>  (264) 
BAO_0000357

>  <data_validity_description>  (264) 
None

>  <activity_id>  (264) 
1239211

>  <standard_type>  (264) 
IC50

>  <target_chembl_id>  (264) 
CHEMBL205

>  <data_validity_comment>  (264) 
None

>  <published_value>  (264) 
8E-9

>  <document_year>  (264) 
1992

>  <target_pref_name>  (264) 
Carbonic anhydrase II

>  <assay_chembl_id>  (264) 
CHEMBL656568

>  <standard_relation>  (264) 
=

>  <assay_description>  (264) 
Inhibition of human erythrocyte carbonic anhydrase II

>  <published_relation>  (264) 
=

>  <standard_value>  (264) 
8

>  <qudt_units>  (264) 
http://www.openphacts.org/units/Nanomolar

>  <target_tax_id>  (264) 
9606

>  <bao_label>  (264) 
single protein format

>  <published_units>  (264) 
M

>  <pchembl_value>  (264) 
8.1

>  <published_type>  (264) 
I50

>  <activity_comment>  (264) 
None

$$$$

     RDKit          

 21 23  0  0  0  0  0  0  0  0999 V2000
    0.0000    0.0000    0.0000 N   0  0  0  0  0  0  0  0  0  0  0  0
    0.0000    0.0000    0.0000 S   0  0  0  0  0  0  0  0  0  0  0  0
    0.0000    0.0000    0.0000 O   0  0  0  0  0  0  0  0  0  0  0  0
    0.0000    0.0000    0.0000 O   0  0  0  0  0  0  0  0  0  0  0  0
    0.0000    0.0000    0.0000 C   0  0  0  0  0  0  0  0  0  0  0  0
    0.0000    0.0000    0.0000 O   0  0  0  0  0  0  0  0  0  0  0  0
    0.0000    0.0000    0.0000 C   0  0  0  0  0  0  0  0  0  0  0  0
    0.0000    0.0000    0.0000 S   0  0  0  0  0  0  0  0  0  0  0  0
    0.0000    0.0000    0.0000 C   0  0  0  0  0  0  0  0  0  0  0  0
    0.0000    0.0000    0.0000 C   0  0  0  0  0  0  0  0  0  0  0  0
    0.0000    0.0000    0.0000 N   0  0  0  0  0  0  0  0  0  0  0  0
    0.0000    0.0000    0.0000 C   0  0  0  0  0  0  0  0  0  0  0  0
    0.0000    0.0000    0.0000 C   0  0  0  0  0  0  0  0  0  0  0  0
    0.0000    0.0000    0.0000 C   0  0  0  0  0  0  0  0  0  0  0  0
    0.0000    0.0000    0.0000 C   0  0  0  0  0  0  0  0  0  0  0  0
    0.0000    0.0000    0.0000 C   0  0  0  0  0  0  0  0  0  0  0  0
    0.0000    0.0000    0.0000 C   0  0  0  0  0  0  0  0  0  0  0  0
    0.0000    0.0000    0.0000 N   0  0  0  0  0  0  0  0  0  0  0  0
    0.0000    0.0000    0.0000 C   0  0  0  0  0  0  0  0  0  0  0  0
    0.0000    0.0000    0.0000 C   0  0  0  0  0  0  0  0  0  0  0  0
    0.0000    0.0000    0.0000 C   0  0  0  0  0  0  0  0  0  0  0  0
  1  2  1  0
  2  3  2  0
  2  4  2  0
  2  5  1  0
  5  6  1  0
  6  7  1  0
  7  8  1  0
  8  9  1  0
  9 10  1  0
 10 11  1  0
 11 12  1  0
 12 13  1  0
 13 14  2  0
 14 15  1  0
 15 16  2  0
 16 17  1  0
 17 18  2  0
  9 19  2  0
 19 20  1  0
 20 21  1  0
 21  5  2  0
 20  7  2  0
 18 13  1  0
M  END
>  <pIC50>  (265) 
8.09

>  <ChEMBL_ID>  (265) 
CHEMBL101371

>  <document_journal>  (265) 
J. Med. Chem.

>  <bao_endpoint>  (265) 
BAO_0000190

>  <potential_duplicate>  (265) 
False

>  <uo_units>  (265) 
UO_0000065

>  <canonical_smiles>  (265) 
NS(=O)(=O)c1oc2sc(CNCc3ccccn3)cc2c1

>  <parent_molecule_chembl_id>  (265) 
CHEMBL101371

>  <assay_type>  (265) 
B

>  <src_id>  (265) 
1

>  <ligand_efficiency>  (265) 
{u'le': u'0.53', u'bei': u'25', u'sei': u'6', u'lle': u'7.32'}

>  <standard_flag>  (265) 
True

>  <molecule_chembl_id>  (265) 
CHEMBL101371

>  <target_organism>  (265) 
Homo sapiens

>  <standard_units>  (265) 
nM

>  <record_id>  (265) 
192198

>  <document_chembl_id>  (265) 
CHEMBL1125519

>  <bao_format>  (265) 
BAO_0000357

>  <data_validity_description>  (265) 
None

>  <activity_id>  (265) 
1241987

>  <standard_type>  (265) 
IC50

>  <target_chembl_id>  (265) 
CHEMBL205

>  <data_validity_comment>  (265) 
None

>  <published_value>  (265) 
8.2E-9

>  <document_year>  (265) 
1992

>  <target_pref_name>  (265) 
Carbonic anhydrase II

>  <assay_chembl_id>  (265) 
CHEMBL656568

>  <standard_relation>  (265) 
=

>  <assay_description>  (265) 
Inhibition of human erythrocyte carbonic anhydrase II

>  <published_relation>  (265) 
=

>  <standard_value>  (265) 
8.2

>  <qudt_units>  (265) 
http://www.openphacts.org/units/Nanomolar

>  <target_tax_id>  (265) 
9606

>  <bao_label>  (265) 
single protein format

>  <published_units>  (265) 
M

>  <pchembl_value>  (265) 
8.09

>  <published_type>  (265) 
I50

>  <activity_comment>  (265) 
None

$$$$

     RDKit          

 19 20  0  0  0  0  0  0  0  0999 V2000
    0.0000    0.0000    0.0000 C   0  0  0  0  0  0  0  0  0  0  0  0
    0.0000    0.0000    0.0000 O   0  0  0  0  0  0  0  0  0  0  0  0
    0.0000    0.0000    0.0000 C   0  0  0  0  0  0  0  0  0  0  0  0
    0.0000    0.0000    0.0000 C   0  0  0  0  0  0  0  0  0  0  0  0
    0.0000    0.0000    0.0000 C   0  0  0  0  0  0  0  0  0  0  0  0
    0.0000    0.0000    0.0000 N   0  0  0  0  0  0  0  0  0  0  0  0
    0.0000    0.0000    0.0000 C   0  0  0  0  0  0  0  0  0  0  0  0
    0.0000    0.0000    0.0000 C   0  0  0  0  0  0  0  0  0  0  0  0
    0.0000    0.0000    0.0000 C   0  0  0  0  0  0  0  0  0  0  0  0
    0.0000    0.0000    0.0000 C   0  0  0  0  0  0  0  0  0  0  0  0
    0.0000    0.0000    0.0000 C   0  0  0  0  0  0  0  0  0  0  0  0
    0.0000    0.0000    0.0000 C   0  0  0  0  0  0  0  0  0  0  0  0
    0.0000    0.0000    0.0000 O   0  0  0  0  0  0  0  0  0  0  0  0
    0.0000    0.0000    0.0000 C   0  0  0  0  0  0  0  0  0  0  0  0
    0.0000    0.0000    0.0000 S   0  0  0  0  0  0  0  0  0  0  0  0
    0.0000    0.0000    0.0000 S   0  0  0  0  0  0  0  0  0  0  0  0
    0.0000    0.0000    0.0000 O   0  0  0  0  0  0  0  0  0  0  0  0
    0.0000    0.0000    0.0000 O   0  0  0  0  0  0  0  0  0  0  0  0
    0.0000    0.0000    0.0000 N   0  0  0  0  0  0  0  0  0  0  0  0
  1  2  1  0
  2  3  1  0
  3  4  1  0
  4  5  1  0
  5  6  1  0
  6  7  1  0
  7  8  1  0
  8  9  2  0
  9 10  1  0
 10 11  1  0
 11 12  2  0
 12 13  1  0
 13 14  1  0
 14 15  1  0
 12 16  1  0
 16 17  2  0
 16 18  2  0
 16 19  1  0
 15  8  1  0
 14 10  2  0
M  END
>  <pIC50>  (266) 
7.92

>  <ChEMBL_ID>  (266) 
CHEMBL106493

>  <document_journal>  (266) 
J. Med. Chem.

>  <bao_endpoint>  (266) 
BAO_0000190

>  <potential_duplicate>  (266) 
False

>  <uo_units>  (266) 
UO_0000065

>  <canonical_smiles>  (266) 
COCCCNCc1cc2cc(oc2s1)S(=O)(=O)N

>  <parent_molecule_chembl_id>  (266) 
CHEMBL106493

>  <assay_type>  (266) 
B

>  <src_id>  (266) 
1

>  <ligand_efficiency>  (266) 
{u'le': u'0.57', u'bei': u'26.02', u'sei': u'6.04', u'lle': u'7.87'}

>  <standard_flag>  (266) 
True

>  <molecule_chembl_id>  (266) 
CHEMBL106493

>  <target_organism>  (266) 
Homo sapiens

>  <standard_units>  (266) 
nM

>  <record_id>  (266) 
192201

>  <document_chembl_id>  (266) 
CHEMBL1125519

>  <bao_format>  (266) 
BAO_0000357

>  <data_validity_description>  (266) 
None

>  <activity_id>  (266) 
1244522

>  <standard_type>  (266) 
IC50

>  <target_chembl_id>  (266) 
CHEMBL205

>  <data_validity_comment>  (266) 
None

>  <published_value>  (266) 
1.2E-8

>  <document_year>  (266) 
1992

>  <target_pref_name>  (266) 
Carbonic anhydrase II

>  <assay_chembl_id>  (266) 
CHEMBL656568

>  <standard_relation>  (266) 
=

>  <assay_description>  (266) 
Inhibition of human erythrocyte carbonic anhydrase II

>  <published_relation>  (266) 
=

>  <standard_value>  (266) 
12

>  <qudt_units>  (266) 
http://www.openphacts.org/units/Nanomolar

>  <target_tax_id>  (266) 
9606

>  <bao_label>  (266) 
single protein format

>  <published_units>  (266) 
M

>  <pchembl_value>  (266) 
7.92

>  <published_type>  (266) 
I50

>  <activity_comment>  (266) 
None

$$$$

     RDKit          

 25 26  0  0  0  0  0  0  0  0999 V2000
    0.0000    0.0000    0.0000 C   0  0  0  0  0  0  0  0  0  0  0  0
    0.0000    0.0000    0.0000 O   0  0  0  0  0  0  0  0  0  0  0  0
    0.0000    0.0000    0.0000 C   0  0  0  0  0  0  0  0  0  0  0  0
    0.0000    0.0000    0.0000 C   0  0  0  0  0  0  0  0  0  0  0  0
    0.0000    0.0000    0.0000 O   0  0  0  0  0  0  0  0  0  0  0  0
    0.0000    0.0000    0.0000 C   0  0  0  0  0  0  0  0  0  0  0  0
    0.0000    0.0000    0.0000 C   0  0  0  0  0  0  0  0  0  0  0  0
    0.0000    0.0000    0.0000 N   0  0  0  0  0  0  0  0  0  0  0  0
    0.0000    0.0000    0.0000 C   0  0  0  0  0  0  0  0  0  0  0  0
    0.0000    0.0000    0.0000 C   0  0  0  0  0  0  0  0  0  0  0  0
    0.0000    0.0000    0.0000 O   0  0  0  0  0  0  0  0  0  0  0  0
    0.0000    0.0000    0.0000 C   0  0  0  0  0  0  0  0  0  0  0  0
    0.0000    0.0000    0.0000 C   0  0  0  0  0  0  0  0  0  0  0  0
    0.0000    0.0000    0.0000 C   0  0  0  0  0  0  0  0  0  0  0  0
    0.0000    0.0000    0.0000 C   0  0  0  0  0  0  0  0  0  0  0  0
    0.0000    0.0000    0.0000 C   0  0  0  0  0  0  0  0  0  0  0  0
    0.0000    0.0000    0.0000 C   0  0  0  0  0  0  0  0  0  0  0  0
    0.0000    0.0000    0.0000 C   0  0  0  0  0  0  0  0  0  0  0  0
    0.0000    0.0000    0.0000 O   0  0  0  0  0  0  0  0  0  0  0  0
    0.0000    0.0000    0.0000 C   0  0  0  0  0  0  0  0  0  0  0  0
    0.0000    0.0000    0.0000 S   0  0  0  0  0  0  0  0  0  0  0  0
    0.0000    0.0000    0.0000 S   0  0  0  0  0  0  0  0  0  0  0  0
    0.0000    0.0000    0.0000 O   0  0  0  0  0  0  0  0  0  0  0  0
    0.0000    0.0000    0.0000 O   0  0  0  0  0  0  0  0  0  0  0  0
    0.0000    0.0000    0.0000 N   0  0  0  0  0  0  0  0  0  0  0  0
  1  2  1  0
  2  3  1  0
  3  4  1  0
  4  5  1  0
  5  6  1  0
  6  7  1  0
  7  8  1  0
  8  9  1  0
  9 10  1  0
 10 11  1  0
 11 12  1  0
  8 13  1  0
 13 14  1  0
 14 15  2  0
 15 16  1  0
 16 17  1  0
 17 18  2  0
 18 19  1  0
 19 20  1  0
 20 21  1  0
 18 22  1  0
 22 23  2  0
 22 24  2  0
 22 25  1  0
 21 14  1  0
 20 16  2  0
M  END
>  <pIC50>  (267) 
8.19

>  <ChEMBL_ID>  (267) 
CHEMBL103255

>  <document_journal>  (267) 
J. Med. Chem.

>  <bao_endpoint>  (267) 
BAO_0000190

>  <potential_duplicate>  (267) 
False

>  <uo_units>  (267) 
UO_0000065

>  <canonical_smiles>  (267) 
COCCOCCN(CCOC)Cc1cc2cc(oc2s1)S(=O)(=O)N

>  <parent_molecule_chembl_id>  (267) 
CHEMBL103255

>  <assay_type>  (267) 
B

>  <src_id>  (267) 
1

>  <ligand_efficiency>  (267) 
{u'le': u'0.45', u'bei': u'20.86', u'sei': u'5.81', u'lle': u'7.93'}

>  <standard_flag>  (267) 
True

>  <molecule_chembl_id>  (267) 
CHEMBL103255

>  <target_organism>  (267) 
Homo sapiens

>  <standard_units>  (267) 
nM

>  <record_id>  (267) 
192199

>  <document_chembl_id>  (267) 
CHEMBL1125519

>  <bao_format>  (267) 
BAO_0000357

>  <data_validity_description>  (267) 
None

>  <activity_id>  (267) 
1249725

>  <standard_type>  (267) 
IC50

>  <target_chembl_id>  (267) 
CHEMBL205

>  <data_validity_comment>  (267) 
None

>  <published_value>  (267) 
6.49E-9

>  <document_year>  (267) 
1992

>  <target_pref_name>  (267) 
Carbonic anhydrase II

>  <assay_chembl_id>  (267) 
CHEMBL656568

>  <standard_relation>  (267) 
=

>  <assay_description>  (267) 
Inhibition of human erythrocyte carbonic anhydrase II

>  <published_relation>  (267) 
=

>  <standard_value>  (267) 
6.49

>  <qudt_units>  (267) 
http://www.openphacts.org/units/Nanomolar

>  <target_tax_id>  (267) 
9606

>  <bao_label>  (267) 
single protein format

>  <published_units>  (267) 
M

>  <pchembl_value>  (267) 
8.19

>  <published_type>  (267) 
I50

>  <activity_comment>  (267) 
None

$$$$

     RDKit          

 17 18  0  0  0  0  0  0  0  0999 V2000
    0.0000    0.0000    0.0000 N   0  0  0  0  0  0  0  0  0  0  0  0
    0.0000    0.0000    0.0000 S   0  0  0  0  0  0  0  0  0  0  0  0
    0.0000    0.0000    0.0000 O   0  0  0  0  0  0  0  0  0  0  0  0
    0.0000    0.0000    0.0000 O   0  0  0  0  0  0  0  0  0  0  0  0
    0.0000    0.0000    0.0000 C   0  0  0  0  0  0  0  0  0  0  0  0
    0.0000    0.0000    0.0000 O   0  0  0  0  0  0  0  0  0  0  0  0
    0.0000    0.0000    0.0000 C   0  0  0  0  0  0  0  0  0  0  0  0
    0.0000    0.0000    0.0000 S   0  0  0  0  0  0  0  0  0  0  0  0
    0.0000    0.0000    0.0000 C   0  0  0  0  0  0  0  0  0  0  0  0
    0.0000    0.0000    0.0000 C   0  0  0  0  0  0  0  0  0  0  0  0
    0.0000    0.0000    0.0000 N   0  0  0  0  0  0  0  0  0  0  0  0
    0.0000    0.0000    0.0000 C   0  0  0  0  0  0  0  0  0  0  0  0
    0.0000    0.0000    0.0000 C   0  0  0  0  0  0  0  0  0  0  0  0
    0.0000    0.0000    0.0000 F   0  0  0  0  0  0  0  0  0  0  0  0
    0.0000    0.0000    0.0000 C   0  0  0  0  0  0  0  0  0  0  0  0
    0.0000    0.0000    0.0000 C   0  0  0  0  0  0  0  0  0  0  0  0
    0.0000    0.0000    0.0000 C   0  0  0  0  0  0  0  0  0  0  0  0
  1  2  1  0
  2  3  2  0
  2  4  2  0
  2  5  1  0
  5  6  1  0
  6  7  1  0
  7  8  1  0
  8  9  1  0
  9 10  1  0
 10 11  1  0
 11 12  1  0
 12 13  1  0
 13 14  1  0
  9 15  2  0
 15 16  1  0
 16 17  1  0
 17  5  2  0
 16  7  2  0
M  END
>  <pIC50>  (268) 
7.92

>  <ChEMBL_ID>  (268) 
CHEMBL101370

>  <document_journal>  (268) 
J. Med. Chem.

>  <bao_endpoint>  (268) 
BAO_0000190

>  <potential_duplicate>  (268) 
False

>  <uo_units>  (268) 
UO_0000065

>  <canonical_smiles>  (268) 
NS(=O)(=O)c1oc2sc(CNCCF)cc2c1

>  <parent_molecule_chembl_id>  (268) 
CHEMBL101370

>  <assay_type>  (268) 
B

>  <src_id>  (268) 
1

>  <ligand_efficiency>  (268) 
{u'le': u'0.64', u'bei': u'28.46', u'sei': u'6.5', u'lle': u'7.4'}

>  <standard_flag>  (268) 
True

>  <molecule_chembl_id>  (268) 
CHEMBL101370

>  <target_organism>  (268) 
Homo sapiens

>  <standard_units>  (268) 
nM

>  <record_id>  (268) 
192197

>  <document_chembl_id>  (268) 
CHEMBL1125519

>  <bao_format>  (268) 
BAO_0000357

>  <data_validity_description>  (268) 
None

>  <activity_id>  (268) 
1252013

>  <standard_type>  (268) 
IC50

>  <target_chembl_id>  (268) 
CHEMBL205

>  <data_validity_comment>  (268) 
None

>  <published_value>  (268) 
1.2E-8

>  <document_year>  (268) 
1992

>  <target_pref_name>  (268) 
Carbonic anhydrase II

>  <assay_chembl_id>  (268) 
CHEMBL656568

>  <standard_relation>  (268) 
=

>  <assay_description>  (268) 
Inhibition of human erythrocyte carbonic anhydrase II

>  <published_relation>  (268) 
=

>  <standard_value>  (268) 
12

>  <qudt_units>  (268) 
http://www.openphacts.org/units/Nanomolar

>  <target_tax_id>  (268) 
9606

>  <bao_label>  (268) 
single protein format

>  <published_units>  (268) 
M

>  <pchembl_value>  (268) 
7.92

>  <published_type>  (268) 
I50

>  <activity_comment>  (268) 
None

$$$$

     RDKit          

 16 17  0  0  0  0  0  0  0  0999 V2000
    0.0000    0.0000    0.0000 C   0  0  0  0  0  0  0  0  0  0  0  0
    0.0000    0.0000    0.0000 C   0  0  0  0  0  0  0  0  0  0  0  0
    0.0000    0.0000    0.0000 N   0  0  0  0  0  0  0  0  0  0  0  0
    0.0000    0.0000    0.0000 C   0  0  0  0  0  0  0  0  0  0  0  0
    0.0000    0.0000    0.0000 C   0  0  0  0  0  0  0  0  0  0  0  0
    0.0000    0.0000    0.0000 C   0  0  0  0  0  0  0  0  0  0  0  0
    0.0000    0.0000    0.0000 C   0  0  0  0  0  0  0  0  0  0  0  0
    0.0000    0.0000    0.0000 C   0  0  0  0  0  0  0  0  0  0  0  0
    0.0000    0.0000    0.0000 C   0  0  0  0  0  0  0  0  0  0  0  0
    0.0000    0.0000    0.0000 O   0  0  0  0  0  0  0  0  0  0  0  0
    0.0000    0.0000    0.0000 C   0  0  0  0  0  0  0  0  0  0  0  0
    0.0000    0.0000    0.0000 S   0  0  0  0  0  0  0  0  0  0  0  0
    0.0000    0.0000    0.0000 S   0  0  0  0  0  0  0  0  0  0  0  0
    0.0000    0.0000    0.0000 O   0  0  0  0  0  0  0  0  0  0  0  0
    0.0000    0.0000    0.0000 O   0  0  0  0  0  0  0  0  0  0  0  0
    0.0000    0.0000    0.0000 N   0  0  0  0  0  0  0  0  0  0  0  0
  1  2  1  0
  2  3  1  0
  3  4  1  0
  4  5  1  0
  5  6  2  0
  6  7  1  0
  7  8  1  0
  8  9  2  0
  9 10  1  0
 10 11  1  0
 11 12  1  0
  9 13  1  0
 13 14  2  0
 13 15  2  0
 13 16  1  0
 12  5  1  0
 11  7  2  0
M  END
>  <pIC50>  (269) 
7.96

>  <ChEMBL_ID>  (269) 
CHEMBL103621

>  <document_journal>  (269) 
J. Med. Chem.

>  <bao_endpoint>  (269) 
BAO_0000190

>  <potential_duplicate>  (269) 
False

>  <uo_units>  (269) 
UO_0000065

>  <canonical_smiles>  (269) 
CCNCc1cc2cc(oc2s1)S(=O)(=O)N

>  <parent_molecule_chembl_id>  (269) 
CHEMBL103621

>  <assay_type>  (269) 
B

>  <src_id>  (269) 
1

>  <ligand_efficiency>  (269) 
{u'le': u'0.68', u'bei': u'30.57', u'sei': u'6.53', u'lle': u'7.49'}

>  <standard_flag>  (269) 
True

>  <molecule_chembl_id>  (269) 
CHEMBL103621

>  <target_organism>  (269) 
Homo sapiens

>  <standard_units>  (269) 
nM

>  <record_id>  (269) 
192205

>  <document_chembl_id>  (269) 
CHEMBL1125519

>  <bao_format>  (269) 
BAO_0000357

>  <data_validity_description>  (269) 
None

>  <activity_id>  (269) 
1253273

>  <standard_type>  (269) 
IC50

>  <target_chembl_id>  (269) 
CHEMBL205

>  <data_validity_comment>  (269) 
None

>  <published_value>  (269) 
1.1E-8

>  <document_year>  (269) 
1992

>  <target_pref_name>  (269) 
Carbonic anhydrase II

>  <assay_chembl_id>  (269) 
CHEMBL656568

>  <standard_relation>  (269) 
=

>  <assay_description>  (269) 
Inhibition of human erythrocyte carbonic anhydrase II

>  <published_relation>  (269) 
=

>  <standard_value>  (269) 
11

>  <qudt_units>  (269) 
http://www.openphacts.org/units/Nanomolar

>  <target_tax_id>  (269) 
9606

>  <bao_label>  (269) 
single protein format

>  <published_units>  (269) 
M

>  <pchembl_value>  (269) 
7.96

>  <published_type>  (269) 
I50

>  <activity_comment>  (269) 
None

$$$$

     RDKit          

 15 16  0  0  0  0  0  0  0  0999 V2000
    0.0000    0.0000    0.0000 C   0  0  0  0  0  0  0  0  0  0  0  0
    0.0000    0.0000    0.0000 N   0  0  0  0  0  0  0  0  0  0  0  0
    0.0000    0.0000    0.0000 C   0  0  0  0  0  0  0  0  0  0  0  0
    0.0000    0.0000    0.0000 C   0  0  0  0  0  0  0  0  0  0  0  0
    0.0000    0.0000    0.0000 C   0  0  0  0  0  0  0  0  0  0  0  0
    0.0000    0.0000    0.0000 C   0  0  0  0  0  0  0  0  0  0  0  0
    0.0000    0.0000    0.0000 C   0  0  0  0  0  0  0  0  0  0  0  0
    0.0000    0.0000    0.0000 C   0  0  0  0  0  0  0  0  0  0  0  0
    0.0000    0.0000    0.0000 O   0  0  0  0  0  0  0  0  0  0  0  0
    0.0000    0.0000    0.0000 C   0  0  0  0  0  0  0  0  0  0  0  0
    0.0000    0.0000    0.0000 S   0  0  0  0  0  0  0  0  0  0  0  0
    0.0000    0.0000    0.0000 S   0  0  0  0  0  0  0  0  0  0  0  0
    0.0000    0.0000    0.0000 O   0  0  0  0  0  0  0  0  0  0  0  0
    0.0000    0.0000    0.0000 O   0  0  0  0  0  0  0  0  0  0  0  0
    0.0000    0.0000    0.0000 N   0  0  0  0  0  0  0  0  0  0  0  0
  1  2  1  0
  2  3  1  0
  3  4  1  0
  4  5  2  0
  5  6  1  0
  6  7  1  0
  7  8  2  0
  8  9  1  0
  9 10  1  0
 10 11  1  0
  8 12  1  0
 12 13  2  0
 12 14  2  0
 12 15  1  0
 11  4  1  0
 10  6  2  0
M  END
>  <pIC50>  (270) 
8.05

>  <ChEMBL_ID>  (270) 
CHEMBL103087

>  <document_journal>  (270) 
J. Med. Chem.

>  <bao_endpoint>  (270) 
BAO_0000190

>  <potential_duplicate>  (270) 
False

>  <uo_units>  (270) 
UO_0000065

>  <canonical_smiles>  (270) 
CNCc1cc2cc(oc2s1)S(=O)(=O)N

>  <parent_molecule_chembl_id>  (270) 
CHEMBL103087

>  <assay_type>  (270) 
B

>  <src_id>  (270) 
1

>  <ligand_efficiency>  (270) 
{u'le': u'0.73', u'bei': u'32.67', u'sei': u'6.6', u'lle': u'7.93'}

>  <standard_flag>  (270) 
True

>  <molecule_chembl_id>  (270) 
CHEMBL103087

>  <target_organism>  (270) 
Homo sapiens

>  <standard_units>  (270) 
nM

>  <record_id>  (270) 
192194

>  <document_chembl_id>  (270) 
CHEMBL1125519

>  <bao_format>  (270) 
BAO_0000357

>  <data_validity_description>  (270) 
None

>  <activity_id>  (270) 
1254513

>  <standard_type>  (270) 
IC50

>  <target_chembl_id>  (270) 
CHEMBL205

>  <data_validity_comment>  (270) 
None

>  <published_value>  (270) 
9E-9

>  <document_year>  (270) 
1992

>  <target_pref_name>  (270) 
Carbonic anhydrase II

>  <assay_chembl_id>  (270) 
CHEMBL656568

>  <standard_relation>  (270) 
=

>  <assay_description>  (270) 
Inhibition of human erythrocyte carbonic anhydrase II

>  <published_relation>  (270) 
=

>  <standard_value>  (270) 
9

>  <qudt_units>  (270) 
http://www.openphacts.org/units/Nanomolar

>  <target_tax_id>  (270) 
9606

>  <bao_label>  (270) 
single protein format

>  <published_units>  (270) 
M

>  <pchembl_value>  (270) 
8.05

>  <published_type>  (270) 
I50

>  <activity_comment>  (270) 
None

$$$$

     RDKit          

 18 19  0  0  0  0  0  0  0  0999 V2000
    0.0000    0.0000    0.0000 C   0  0  0  0  0  0  0  0  0  0  0  0
    0.0000    0.0000    0.0000 O   0  0  0  0  0  0  0  0  0  0  0  0
    0.0000    0.0000    0.0000 C   0  0  0  0  0  0  0  0  0  0  0  0
    0.0000    0.0000    0.0000 C   0  0  0  0  0  0  0  0  0  0  0  0
    0.0000    0.0000    0.0000 N   0  0  0  0  0  0  0  0  0  0  0  0
    0.0000    0.0000    0.0000 C   0  0  0  0  0  0  0  0  0  0  0  0
    0.0000    0.0000    0.0000 C   0  0  0  0  0  0  0  0  0  0  0  0
    0.0000    0.0000    0.0000 C   0  0  0  0  0  0  0  0  0  0  0  0
    0.0000    0.0000    0.0000 C   0  0  0  0  0  0  0  0  0  0  0  0
    0.0000    0.0000    0.0000 C   0  0  0  0  0  0  0  0  0  0  0  0
    0.0000    0.0000    0.0000 C   0  0  0  0  0  0  0  0  0  0  0  0
    0.0000    0.0000    0.0000 O   0  0  0  0  0  0  0  0  0  0  0  0
    0.0000    0.0000    0.0000 C   0  0  0  0  0  0  0  0  0  0  0  0
    0.0000    0.0000    0.0000 S   0  0  0  0  0  0  0  0  0  0  0  0
    0.0000    0.0000    0.0000 S   0  0  0  0  0  0  0  0  0  0  0  0
    0.0000    0.0000    0.0000 O   0  0  0  0  0  0  0  0  0  0  0  0
    0.0000    0.0000    0.0000 O   0  0  0  0  0  0  0  0  0  0  0  0
    0.0000    0.0000    0.0000 N   0  0  0  0  0  0  0  0  0  0  0  0
  1  2  1  0
  2  3  1  0
  3  4  1  0
  4  5  1  0
  5  6  1  0
  6  7  1  0
  7  8  2  0
  8  9  1  0
  9 10  1  0
 10 11  2  0
 11 12  1  0
 12 13  1  0
 13 14  1  0
 11 15  1  0
 15 16  2  0
 15 17  2  0
 15 18  1  0
 14  7  1  0
 13  9  2  0
M  END
>  <pIC50>  (271) 
7.96

>  <ChEMBL_ID>  (271) 
CHEMBL317694

>  <document_journal>  (271) 
J. Med. Chem.

>  <bao_endpoint>  (271) 
BAO_0000190

>  <potential_duplicate>  (271) 
False

>  <uo_units>  (271) 
UO_0000065

>  <canonical_smiles>  (271) 
COCCNCc1cc2cc(oc2s1)S(=O)(=O)N

>  <parent_molecule_chembl_id>  (271) 
CHEMBL317694

>  <assay_type>  (271) 
B

>  <src_id>  (271) 
1

>  <ligand_efficiency>  (271) 
{u'le': u'0.6', u'bei': u'27.41', u'sei': u'6.07', u'lle': u'7.97'}

>  <standard_flag>  (271) 
True

>  <molecule_chembl_id>  (271) 
CHEMBL317694

>  <target_organism>  (271) 
Homo sapiens

>  <standard_units>  (271) 
nM

>  <record_id>  (271) 
192195

>  <document_chembl_id>  (271) 
CHEMBL1125519

>  <bao_format>  (271) 
BAO_0000357

>  <data_validity_description>  (271) 
None

>  <activity_id>  (271) 
1257289

>  <standard_type>  (271) 
IC50

>  <target_chembl_id>  (271) 
CHEMBL205

>  <data_validity_comment>  (271) 
None

>  <published_value>  (271) 
1.1E-8

>  <document_year>  (271) 
1992

>  <target_pref_name>  (271) 
Carbonic anhydrase II

>  <assay_chembl_id>  (271) 
CHEMBL656568

>  <standard_relation>  (271) 
=

>  <assay_description>  (271) 
Inhibition of human erythrocyte carbonic anhydrase II

>  <published_relation>  (271) 
=

>  <standard_value>  (271) 
11

>  <qudt_units>  (271) 
http://www.openphacts.org/units/Nanomolar

>  <target_tax_id>  (271) 
9606

>  <bao_label>  (271) 
single protein format

>  <published_units>  (271) 
M

>  <pchembl_value>  (271) 
7.96

>  <published_type>  (271) 
I50

>  <activity_comment>  (271) 
None

$$$$

     RDKit          

 19 20  0  0  0  0  0  0  0  0999 V2000
    0.0000    0.0000    0.0000 N   0  0  0  0  0  0  0  0  0  0  0  0
    0.0000    0.0000    0.0000 S   0  0  0  0  0  0  0  0  0  0  0  0
    0.0000    0.0000    0.0000 O   0  0  0  0  0  0  0  0  0  0  0  0
    0.0000    0.0000    0.0000 O   0  0  0  0  0  0  0  0  0  0  0  0
    0.0000    0.0000    0.0000 C   0  0  0  0  0  0  0  0  0  0  0  0
    0.0000    0.0000    0.0000 O   0  0  0  0  0  0  0  0  0  0  0  0
    0.0000    0.0000    0.0000 C   0  0  0  0  0  0  0  0  0  0  0  0
    0.0000    0.0000    0.0000 S   0  0  0  0  0  0  0  0  0  0  0  0
    0.0000    0.0000    0.0000 C   0  0  0  0  0  0  0  0  0  0  0  0
    0.0000    0.0000    0.0000 C   0  0  0  0  0  0  0  0  0  0  0  0
    0.0000    0.0000    0.0000 N   0  0  0  0  0  0  0  0  0  0  0  0
    0.0000    0.0000    0.0000 C   0  0  0  0  0  0  0  0  0  0  0  0
    0.0000    0.0000    0.0000 C   0  0  0  0  0  0  0  0  0  0  0  0
    0.0000    0.0000    0.0000 C   0  0  0  0  0  0  0  0  0  0  0  0
    0.0000    0.0000    0.0000 C   0  0  0  0  0  0  0  0  0  0  0  0
    0.0000    0.0000    0.0000 O   0  0  0  0  0  0  0  0  0  0  0  0
    0.0000    0.0000    0.0000 C   0  0  0  0  0  0  0  0  0  0  0  0
    0.0000    0.0000    0.0000 C   0  0  0  0  0  0  0  0  0  0  0  0
    0.0000    0.0000    0.0000 C   0  0  0  0  0  0  0  0  0  0  0  0
  1  2  1  0
  2  3  2  0
  2  4  2  0
  2  5  1  0
  5  6  1  0
  6  7  1  0
  7  8  1  0
  8  9  1  0
  9 10  1  0
 10 11  1  0
 11 12  1  0
 12 13  1  0
 13 14  1  0
 14 15  1  0
 15 16  1  0
  9 17  2  0
 17 18  1  0
 18 19  1  0
 19  5  2  0
 18  7  2  0
M  END
>  <pIC50>  (272) 
7.96

>  <ChEMBL_ID>  (272) 
CHEMBL316757

>  <document_journal>  (272) 
J. Med. Chem.

>  <bao_endpoint>  (272) 
BAO_0000190

>  <potential_duplicate>  (272) 
False

>  <uo_units>  (272) 
UO_0000065

>  <canonical_smiles>  (272) 
NS(=O)(=O)c1oc2sc(CNCCCCO)cc2c1

>  <parent_molecule_chembl_id>  (272) 
CHEMBL316757

>  <assay_type>  (272) 
B

>  <src_id>  (272) 
1

>  <ligand_efficiency>  (272) 
{u'le': u'0.57', u'bei': u'26.15', u'sei': u'5.6', u'lle': u'7.74'}

>  <standard_flag>  (272) 
True

>  <molecule_chembl_id>  (272) 
CHEMBL316757

>  <target_organism>  (272) 
Homo sapiens

>  <standard_units>  (272) 
nM

>  <record_id>  (272) 
192202

>  <document_chembl_id>  (272) 
CHEMBL1125519

>  <bao_format>  (272) 
BAO_0000357

>  <data_validity_description>  (272) 
None

>  <activity_id>  (272) 
1257296

>  <standard_type>  (272) 
IC50

>  <target_chembl_id>  (272) 
CHEMBL205

>  <data_validity_comment>  (272) 
None

>  <published_value>  (272) 
1.1E-8

>  <document_year>  (272) 
1992

>  <target_pref_name>  (272) 
Carbonic anhydrase II

>  <assay_chembl_id>  (272) 
CHEMBL656568

>  <standard_relation>  (272) 
=

>  <assay_description>  (272) 
Inhibition of human erythrocyte carbonic anhydrase II

>  <published_relation>  (272) 
=

>  <standard_value>  (272) 
11

>  <qudt_units>  (272) 
http://www.openphacts.org/units/Nanomolar

>  <target_tax_id>  (272) 
9606

>  <bao_label>  (272) 
single protein format

>  <published_units>  (272) 
M

>  <pchembl_value>  (272) 
7.96

>  <published_type>  (272) 
I50

>  <activity_comment>  (272) 
None

$$$$

     RDKit          

 18 19  0  0  0  0  0  0  0  0999 V2000
    0.0000    0.0000    0.0000 C   0  0  0  0  0  0  0  0  0  0  0  0
    0.0000    0.0000    0.0000 C   0  0  0  0  0  0  0  0  0  0  0  0
    0.0000    0.0000    0.0000 C   0  0  0  0  0  0  0  0  0  0  0  0
    0.0000    0.0000    0.0000 C   0  0  0  0  0  0  0  0  0  0  0  0
    0.0000    0.0000    0.0000 N   0  0  0  0  0  0  0  0  0  0  0  0
    0.0000    0.0000    0.0000 C   0  0  0  0  0  0  0  0  0  0  0  0
    0.0000    0.0000    0.0000 C   0  0  0  0  0  0  0  0  0  0  0  0
    0.0000    0.0000    0.0000 C   0  0  0  0  0  0  0  0  0  0  0  0
    0.0000    0.0000    0.0000 C   0  0  0  0  0  0  0  0  0  0  0  0
    0.0000    0.0000    0.0000 C   0  0  0  0  0  0  0  0  0  0  0  0
    0.0000    0.0000    0.0000 C   0  0  0  0  0  0  0  0  0  0  0  0
    0.0000    0.0000    0.0000 O   0  0  0  0  0  0  0  0  0  0  0  0
    0.0000    0.0000    0.0000 C   0  0  0  0  0  0  0  0  0  0  0  0
    0.0000    0.0000    0.0000 S   0  0  0  0  0  0  0  0  0  0  0  0
    0.0000    0.0000    0.0000 S   0  0  0  0  0  0  0  0  0  0  0  0
    0.0000    0.0000    0.0000 O   0  0  0  0  0  0  0  0  0  0  0  0
    0.0000    0.0000    0.0000 O   0  0  0  0  0  0  0  0  0  0  0  0
    0.0000    0.0000    0.0000 N   0  0  0  0  0  0  0  0  0  0  0  0
  1  2  1  0
  2  3  1  0
  2  4  1  0
  4  5  1  0
  5  6  1  0
  6  7  1  0
  7  8  2  0
  8  9  1  0
  9 10  1  0
 10 11  2  0
 11 12  1  0
 12 13  1  0
 13 14  1  0
 11 15  1  0
 15 16  2  0
 15 17  2  0
 15 18  1  0
 14  7  1  0
 13  9  2  0
M  END
>  <pIC50>  (273) 
8.22

>  <ChEMBL_ID>  (273) 
CHEMBL105713

>  <document_journal>  (273) 
J. Med. Chem.

>  <bao_endpoint>  (273) 
BAO_0000190

>  <potential_duplicate>  (273) 
False

>  <uo_units>  (273) 
UO_0000065

>  <canonical_smiles>  (273) 
CC(C)CNCc1cc2cc(oc2s1)S(=O)(=O)N

>  <parent_molecule_chembl_id>  (273) 
CHEMBL105713

>  <assay_type>  (273) 
B

>  <src_id>  (273) 
1

>  <ligand_efficiency>  (273) 
{u'le': u'0.62', u'bei': u'28.51', u'sei': u'6.74', u'lle': u'6.91'}

>  <standard_flag>  (273) 
True

>  <molecule_chembl_id>  (273) 
CHEMBL105713

>  <target_organism>  (273) 
Homo sapiens

>  <standard_units>  (273) 
nM

>  <record_id>  (273) 
192207

>  <document_chembl_id>  (273) 
CHEMBL1125519

>  <bao_format>  (273) 
BAO_0000357

>  <data_validity_description>  (273) 
None

>  <activity_id>  (273) 
1263403

>  <standard_type>  (273) 
IC50

>  <target_chembl_id>  (273) 
CHEMBL205

>  <data_validity_comment>  (273) 
None

>  <published_value>  (273) 
6E-9

>  <document_year>  (273) 
1992

>  <target_pref_name>  (273) 
Carbonic anhydrase II

>  <assay_chembl_id>  (273) 
CHEMBL656568

>  <standard_relation>  (273) 
=

>  <assay_description>  (273) 
Inhibition of human erythrocyte carbonic anhydrase II

>  <published_relation>  (273) 
=

>  <standard_value>  (273) 
6

>  <qudt_units>  (273) 
http://www.openphacts.org/units/Nanomolar

>  <target_tax_id>  (273) 
9606

>  <bao_label>  (273) 
single protein format

>  <published_units>  (273) 
M

>  <pchembl_value>  (273) 
8.22

>  <published_type>  (273) 
I50

>  <activity_comment>  (273) 
None

$$$$

     RDKit          

 20 21  0  0  0  0  0  0  0  0999 V2000
    0.0000    0.0000    0.0000 C   0  0  0  0  0  0  0  0  0  0  0  0
    0.0000    0.0000    0.0000 C   0  0  0  0  0  0  0  0  0  0  0  0
    0.0000    0.0000    0.0000 C   0  0  0  0  0  0  0  0  0  0  0  0
    0.0000    0.0000    0.0000 C   0  0  0  0  0  0  0  0  0  0  0  0
    0.0000    0.0000    0.0000 N   0  0  0  0  0  0  0  0  0  0  0  0
    0.0000    0.0000    0.0000 C   0  0  0  0  0  0  0  0  0  0  0  0
    0.0000    0.0000    0.0000 C   0  0  0  0  0  0  0  0  0  0  0  0
    0.0000    0.0000    0.0000 C   0  0  0  0  0  0  0  0  0  0  0  0
    0.0000    0.0000    0.0000 S   0  0  0  0  0  0  0  0  0  0  0  0
    0.0000    0.0000    0.0000 O   0  0  0  0  0  0  0  0  0  0  0  0
    0.0000    0.0000    0.0000 O   0  0  0  0  0  0  0  0  0  0  0  0
    0.0000    0.0000    0.0000 C   0  0  0  0  0  0  0  0  0  0  0  0
    0.0000    0.0000    0.0000 S   0  0  0  0  0  0  0  0  0  0  0  0
    0.0000    0.0000    0.0000 C   0  0  0  0  0  0  0  0  0  0  0  0
    0.0000    0.0000    0.0000 C   0  0  0  0  0  0  0  0  0  0  0  0
    0.0000    0.0000    0.0000 C   0  0  0  0  0  0  0  0  0  0  0  0
    0.0000    0.0000    0.0000 S   0  0  0  0  0  0  0  0  0  0  0  0
    0.0000    0.0000    0.0000 O   0  0  0  0  0  0  0  0  0  0  0  0
    0.0000    0.0000    0.0000 O   0  0  0  0  0  0  0  0  0  0  0  0
    0.0000    0.0000    0.0000 N   0  0  0  0  0  0  0  0  0  0  0  0
  1  2  1  0
  2  3  1  0
  2  4  1  0
  4  5  1  0
  5  6  1  0
  6  7  1  0
  7  8  1  0
  8  9  1  0
  9 10  2  0
  9 11  2  0
  9 12  1  0
 12 13  1  0
 13 14  1  0
 14 15  2  0
 15 16  1  0
 14 17  1  0
 17 18  2  0
 17 19  2  0
 17 20  1  0
 16  6  1  0
 16 12  2  0
M  END
>  <pIC50>  (274) 
7.32

>  <ChEMBL_ID>  (274) 
CHEMBL2092887

>  <document_journal>  (274) 
J. Med. Chem.

>  <bao_endpoint>  (274) 
BAO_0000190

>  <potential_duplicate>  (274) 
False

>  <uo_units>  (274) 
UO_0000065

>  <canonical_smiles>  (274) 
Cl.CC(C)CN[C@@H]1CCS(=O)(=O)c2sc(cc12)S(=O)(=O)N

>  <parent_molecule_chembl_id>  (274) 
CHEMBL9849

>  <assay_type>  (274) 
B

>  <src_id>  (274) 
1

>  <ligand_efficiency>  (274) 
{u'le': u'0.5', u'bei': u'21.49', u'sei': u'4.81', u'lle': u'6.66'}

>  <standard_flag>  (274) 
True

>  <molecule_chembl_id>  (274) 
CHEMBL2092887

>  <target_organism>  (274) 
Homo sapiens

>  <standard_units>  (274) 
nM

>  <record_id>  (274) 
150710

>  <document_chembl_id>  (274) 
CHEMBL1124372

>  <bao_format>  (274) 
BAO_0000357

>  <data_validity_description>  (274) 
None

>  <activity_id>  (274) 
1267170

>  <standard_type>  (274) 
IC50

>  <target_chembl_id>  (274) 
CHEMBL205

>  <data_validity_comment>  (274) 
None

>  <published_value>  (274) 
53.1

>  <document_year>  (274) 
1989

>  <target_pref_name>  (274) 
Carbonic anhydrase II

>  <assay_chembl_id>  (274) 
CHEMBL656566

>  <standard_relation>  (274) 
=

>  <assay_description>  (274) 
50% inhibitory concentration against human carbonic anhydrase II (HCA II) after pre-incubation at 3 degree C

>  <published_relation>  (274) 
=

>  <standard_value>  (274) 
53.1

>  <qudt_units>  (274) 
http://www.openphacts.org/units/Nanomolar

>  <target_tax_id>  (274) 
9606

>  <bao_label>  (274) 
single protein format

>  <published_units>  (274) 
nM

>  <pchembl_value>  (274) 
7.28

>  <published_type>  (274) 
I50

>  <activity_comment>  (274) 
None

$$$$

     RDKit          

 22 23  0  0  0  0  0  0  0  0999 V2000
    0.0000    0.0000    0.0000 C   0  0  0  0  0  0  0  0  0  0  0  0
    0.0000    0.0000    0.0000 C   0  0  0  0  0  0  0  0  0  0  0  0
    0.0000    0.0000    0.0000 O   0  0  0  0  0  0  0  0  0  0  0  0
    0.0000    0.0000    0.0000 C   0  0  0  0  0  0  0  0  0  0  0  0
    0.0000    0.0000    0.0000 C   0  0  0  0  0  0  0  0  0  0  0  0
    0.0000    0.0000    0.0000 C   0  0  0  0  0  0  0  0  0  0  0  0
    0.0000    0.0000    0.0000 C   0  0  0  0  0  0  0  0  0  0  0  0
    0.0000    0.0000    0.0000 O   0  0  0  0  0  0  0  0  0  0  0  0
    0.0000    0.0000    0.0000 O   0  0  0  0  0  0  0  0  0  0  0  0
    0.0000    0.0000    0.0000 C   0  0  0  0  0  0  0  0  0  0  0  0
    0.0000    0.0000    0.0000 C   0  0  0  0  0  0  0  0  0  0  0  0
    0.0000    0.0000    0.0000 C   0  0  0  0  0  0  0  0  0  0  0  0
    0.0000    0.0000    0.0000 C   0  0  0  0  0  0  0  0  0  0  0  0
    0.0000    0.0000    0.0000 N   0  0  0  0  0  0  0  0  0  0  0  0
    0.0000    0.0000    0.0000 C   0  0  0  0  0  0  0  0  0  0  0  0
    0.0000    0.0000    0.0000 S   0  0  0  0  0  0  0  0  0  0  0  0
    0.0000    0.0000    0.0000 C   0  0  0  0  0  0  0  0  0  0  0  0
    0.0000    0.0000    0.0000 C   0  0  0  0  0  0  0  0  0  0  0  0
    0.0000    0.0000    0.0000 S   0  0  0  0  0  0  0  0  0  0  0  0
    0.0000    0.0000    0.0000 O   0  0  0  0  0  0  0  0  0  0  0  0
    0.0000    0.0000    0.0000 O   0  0  0  0  0  0  0  0  0  0  0  0
    0.0000    0.0000    0.0000 N   0  0  0  0  0  0  0  0  0  0  0  0
  1  2  1  0
  2  3  1  0
  3  4  1  0
  4  5  1  0
  4  6  1  0
  4  7  1  0
  7  8  2  0
  7  9  1  0
  9 10  1  0
 10 11  2  0
 11 12  1  0
 12 13  2  0
 13 14  1  0
 14 15  2  0
 15 16  1  0
 16 17  1  0
 17 18  2  0
 15 19  1  0
 19 20  2  0
 19 21  2  0
 19 22  1  0
 18 10  1  0
 17 13  1  0
M  END
>  <pIC50>  (275) 
8.92

>  <ChEMBL_ID>  (275) 
CHEMBL84600

>  <document_journal>  (275) 
J. Med. Chem.

>  <bao_endpoint>  (275) 
BAO_0000190

>  <potential_duplicate>  (275) 
False

>  <uo_units>  (275) 
UO_0000065

>  <canonical_smiles>  (275) 
CCOC(C)(C)C(=O)Oc1ccc2nc(sc2c1)S(=O)(=O)N

>  <parent_molecule_chembl_id>  (275) 
CHEMBL84600

>  <assay_type>  (275) 
B

>  <src_id>  (275) 
1

>  <ligand_efficiency>  (275) 
{u'le': u'0.55', u'bei': u'25.9', u'sei': u'6.14', u'lle': u'7.11'}

>  <standard_flag>  (275) 
True

>  <molecule_chembl_id>  (275) 
CHEMBL84600

>  <target_organism>  (275) 
Homo sapiens

>  <standard_units>  (275) 
nM

>  <record_id>  (275) 
149006

>  <document_chembl_id>  (275) 
CHEMBL1124628

>  <bao_format>  (275) 
BAO_0000357

>  <data_validity_description>  (275) 
None

>  <activity_id>  (275) 
1268719

>  <standard_type>  (275) 
IC50

>  <target_chembl_id>  (275) 
CHEMBL205

>  <data_validity_comment>  (275) 
None

>  <published_value>  (275) 
1.2E-9

>  <document_year>  (275) 
1989

>  <target_pref_name>  (275) 
Carbonic anhydrase II

>  <assay_chembl_id>  (275) 
CHEMBL656574

>  <standard_relation>  (275) 
=

>  <assay_description>  (275) 
In vitro inhibition of human Carbonic Anhydrase II

>  <published_relation>  (275) 
=

>  <standard_value>  (275) 
1.2

>  <qudt_units>  (275) 
http://www.openphacts.org/units/Nanomolar

>  <target_tax_id>  (275) 
9606

>  <bao_label>  (275) 
single protein format

>  <published_units>  (275) 
M

>  <pchembl_value>  (275) 
8.92

>  <published_type>  (275) 
I50

>  <activity_comment>  (275) 
None

$$$$

     RDKit          

 19 20  0  0  0  0  0  0  0  0999 V2000
    0.0000    0.0000    0.0000 C   0  0  0  0  0  0  0  0  0  0  0  0
    0.0000    0.0000    0.0000 C   0  0  0  0  0  0  0  0  0  0  0  0
    0.0000    0.0000    0.0000 C   0  0  0  0  0  0  0  0  0  0  0  0
    0.0000    0.0000    0.0000 C   0  0  0  0  0  0  0  0  0  0  0  0
    0.0000    0.0000    0.0000 O   0  0  0  0  0  0  0  0  0  0  0  0
    0.0000    0.0000    0.0000 O   0  0  0  0  0  0  0  0  0  0  0  0
    0.0000    0.0000    0.0000 C   0  0  0  0  0  0  0  0  0  0  0  0
    0.0000    0.0000    0.0000 C   0  0  0  0  0  0  0  0  0  0  0  0
    0.0000    0.0000    0.0000 C   0  0  0  0  0  0  0  0  0  0  0  0
    0.0000    0.0000    0.0000 C   0  0  0  0  0  0  0  0  0  0  0  0
    0.0000    0.0000    0.0000 S   0  0  0  0  0  0  0  0  0  0  0  0
    0.0000    0.0000    0.0000 C   0  0  0  0  0  0  0  0  0  0  0  0
    0.0000    0.0000    0.0000 N   0  0  0  0  0  0  0  0  0  0  0  0
    0.0000    0.0000    0.0000 C   0  0  0  0  0  0  0  0  0  0  0  0
    0.0000    0.0000    0.0000 C   0  0  0  0  0  0  0  0  0  0  0  0
    0.0000    0.0000    0.0000 S   0  0  0  0  0  0  0  0  0  0  0  0
    0.0000    0.0000    0.0000 O   0  0  0  0  0  0  0  0  0  0  0  0
    0.0000    0.0000    0.0000 O   0  0  0  0  0  0  0  0  0  0  0  0
    0.0000    0.0000    0.0000 N   0  0  0  0  0  0  0  0  0  0  0  0
  1  2  1  0
  2  3  1  0
  3  4  1  0
  4  5  2  0
  4  6  1  0
  6  7  1  0
  7  8  2  0
  8  9  1  0
  9 10  2  0
 10 11  1  0
 11 12  1  0
 12 13  2  0
 13 14  1  0
 14 15  2  0
 12 16  1  0
 16 17  2  0
 16 18  2  0
 16 19  1  0
 15  7  1  0
 14 10  1  0
M  END
>  <pIC50>  (276) 
8.4

>  <ChEMBL_ID>  (276) 
CHEMBL82230

>  <document_journal>  (276) 
J. Med. Chem.

>  <bao_endpoint>  (276) 
BAO_0000190

>  <potential_duplicate>  (276) 
False

>  <uo_units>  (276) 
UO_0000065

>  <canonical_smiles>  (276) 
CCCC(=O)Oc1ccc2sc(nc2c1)S(=O)(=O)N

>  <parent_molecule_chembl_id>  (276) 
CHEMBL82230

>  <assay_type>  (276) 
B

>  <src_id>  (276) 
1

>  <ligand_efficiency>  (276) 
{u'le': u'0.6', u'bei': u'27.96', u'sei': u'6.18', u'lle': u'6.35'}

>  <standard_flag>  (276) 
True

>  <molecule_chembl_id>  (276) 
CHEMBL82230

>  <target_organism>  (276) 
Homo sapiens

>  <standard_units>  (276) 
nM

>  <record_id>  (276) 
148998

>  <document_chembl_id>  (276) 
CHEMBL1124628

>  <bao_format>  (276) 
BAO_0000357

>  <data_validity_description>  (276) 
None

>  <activity_id>  (276) 
1270027

>  <standard_type>  (276) 
IC50

>  <target_chembl_id>  (276) 
CHEMBL205

>  <data_validity_comment>  (276) 
None

>  <published_value>  (276) 
4E-9

>  <document_year>  (276) 
1989

>  <target_pref_name>  (276) 
Carbonic anhydrase II

>  <assay_chembl_id>  (276) 
CHEMBL656574

>  <standard_relation>  (276) 
=

>  <assay_description>  (276) 
In vitro inhibition of human Carbonic Anhydrase II

>  <published_relation>  (276) 
=

>  <standard_value>  (276) 
4

>  <qudt_units>  (276) 
http://www.openphacts.org/units/Nanomolar

>  <target_tax_id>  (276) 
9606

>  <bao_label>  (276) 
single protein format

>  <published_units>  (276) 
M

>  <pchembl_value>  (276) 
8.4

>  <published_type>  (276) 
I50

>  <activity_comment>  (276) 
None

$$$$

     RDKit          

 20 21  0  0  0  0  0  0  0  0999 V2000
    0.0000    0.0000    0.0000 C   0  0  0  0  0  0  0  0  0  0  0  0
    0.0000    0.0000    0.0000 C   0  0  0  0  0  0  0  0  0  0  0  0
    0.0000    0.0000    0.0000 C   0  0  0  0  0  0  0  0  0  0  0  0
    0.0000    0.0000    0.0000 C   0  0  0  0  0  0  0  0  0  0  0  0
    0.0000    0.0000    0.0000 N   0  0  0  0  0  0  0  0  0  0  0  0
    0.0000    0.0000    0.0000 C   0  0  0  0  0  0  0  0  0  0  0  0
    0.0000    0.0000    0.0000 C   0  0  0  0  0  0  0  0  0  0  0  0
    0.0000    0.0000    0.0000 C   0  0  0  0  0  0  0  0  0  0  0  0
    0.0000    0.0000    0.0000 S   0  0  0  0  0  0  0  0  0  0  0  0
    0.0000    0.0000    0.0000 O   0  0  0  0  0  0  0  0  0  0  0  0
    0.0000    0.0000    0.0000 O   0  0  0  0  0  0  0  0  0  0  0  0
    0.0000    0.0000    0.0000 C   0  0  0  0  0  0  0  0  0  0  0  0
    0.0000    0.0000    0.0000 S   0  0  0  0  0  0  0  0  0  0  0  0
    0.0000    0.0000    0.0000 C   0  0  0  0  0  0  0  0  0  0  0  0
    0.0000    0.0000    0.0000 C   0  0  0  0  0  0  0  0  0  0  0  0
    0.0000    0.0000    0.0000 C   0  0  0  0  0  0  0  0  0  0  0  0
    0.0000    0.0000    0.0000 S   0  0  0  0  0  0  0  0  0  0  0  0
    0.0000    0.0000    0.0000 O   0  0  0  0  0  0  0  0  0  0  0  0
    0.0000    0.0000    0.0000 O   0  0  0  0  0  0  0  0  0  0  0  0
    0.0000    0.0000    0.0000 N   0  0  0  0  0  0  0  0  0  0  0  0
  1  2  1  0
  2  3  1  0
  2  4  1  0
  4  5  1  0
  5  6  1  0
  6  7  1  0
  7  8  1  0
  8  9  1  0
  9 10  2  0
  9 11  2  0
  9 12  1  0
 12 13  1  0
 13 14  1  0
 14 15  2  0
 15 16  1  0
 14 17  1  0
 17 18  2  0
 17 19  2  0
 17 20  1  0
 16  6  1  0
 16 12  2  0
M  END
>  <pIC50>  (277) 
8.575

>  <ChEMBL_ID>  (277) 
CHEMBL1204135

>  <document_journal>  (277) 
J. Med. Chem.

>  <bao_endpoint>  (277) 
BAO_0000190

>  <potential_duplicate>  (277) 
False

>  <uo_units>  (277) 
UO_0000065

>  <canonical_smiles>  (277) 
Cl.CC(C)CN[C@H]1CCS(=O)(=O)c2sc(cc12)S(=O)(=O)N

>  <parent_molecule_chembl_id>  (277) 
CHEMBL417975

>  <assay_type>  (277) 
B

>  <src_id>  (277) 
1

>  <ligand_efficiency>  (277) 
{u'le': u'0.56', u'bei': u'24.31', u'sei': u'5.44', u'lle': u'7.62'}

>  <standard_flag>  (277) 
True

>  <molecule_chembl_id>  (277) 
CHEMBL1204135

>  <target_organism>  (277) 
Homo sapiens

>  <standard_units>  (277) 
nM

>  <record_id>  (277) 
150707

>  <document_chembl_id>  (277) 
CHEMBL1124372

>  <bao_format>  (277) 
BAO_0000357

>  <data_validity_description>  (277) 
None

>  <activity_id>  (277) 
1270077

>  <standard_type>  (277) 
IC50

>  <target_chembl_id>  (277) 
CHEMBL205

>  <data_validity_comment>  (277) 
None

>  <published_value>  (277) 
5.9

>  <document_year>  (277) 
1989

>  <target_pref_name>  (277) 
Carbonic anhydrase II

>  <assay_chembl_id>  (277) 
CHEMBL656566

>  <standard_relation>  (277) 
=

>  <assay_description>  (277) 
50% inhibitory concentration against human carbonic anhydrase II (HCA II) after pre-incubation at 3 degree C

>  <published_relation>  (277) 
=

>  <standard_value>  (277) 
5.9

>  <qudt_units>  (277) 
http://www.openphacts.org/units/Nanomolar

>  <target_tax_id>  (277) 
9606

>  <bao_label>  (277) 
single protein format

>  <published_units>  (277) 
nM

>  <pchembl_value>  (277) 
8.23

>  <published_type>  (277) 
I50

>  <activity_comment>  (277) 
None

$$$$

     RDKit          

 19 20  0  0  0  0  0  0  0  0999 V2000
    0.0000    0.0000    0.0000 C   0  0  0  0  0  0  0  0  0  0  0  0
    0.0000    0.0000    0.0000 O   0  0  0  0  0  0  0  0  0  0  0  0
    0.0000    0.0000    0.0000 C   0  0  0  0  0  0  0  0  0  0  0  0
    0.0000    0.0000    0.0000 C   0  0  0  0  0  0  0  0  0  0  0  0
    0.0000    0.0000    0.0000 O   0  0  0  0  0  0  0  0  0  0  0  0
    0.0000    0.0000    0.0000 O   0  0  0  0  0  0  0  0  0  0  0  0
    0.0000    0.0000    0.0000 C   0  0  0  0  0  0  0  0  0  0  0  0
    0.0000    0.0000    0.0000 C   0  0  0  0  0  0  0  0  0  0  0  0
    0.0000    0.0000    0.0000 C   0  0  0  0  0  0  0  0  0  0  0  0
    0.0000    0.0000    0.0000 C   0  0  0  0  0  0  0  0  0  0  0  0
    0.0000    0.0000    0.0000 N   0  0  0  0  0  0  0  0  0  0  0  0
    0.0000    0.0000    0.0000 C   0  0  0  0  0  0  0  0  0  0  0  0
    0.0000    0.0000    0.0000 S   0  0  0  0  0  0  0  0  0  0  0  0
    0.0000    0.0000    0.0000 C   0  0  0  0  0  0  0  0  0  0  0  0
    0.0000    0.0000    0.0000 C   0  0  0  0  0  0  0  0  0  0  0  0
    0.0000    0.0000    0.0000 S   0  0  0  0  0  0  0  0  0  0  0  0
    0.0000    0.0000    0.0000 O   0  0  0  0  0  0  0  0  0  0  0  0
    0.0000    0.0000    0.0000 O   0  0  0  0  0  0  0  0  0  0  0  0
    0.0000    0.0000    0.0000 N   0  0  0  0  0  0  0  0  0  0  0  0
  1  2  1  0
  2  3  1  0
  3  4  1  0
  4  5  2  0
  4  6  1  0
  6  7  1  0
  7  8  2  0
  8  9  1  0
  9 10  2  0
 10 11  1  0
 11 12  2  0
 12 13  1  0
 13 14  1  0
 14 15  2  0
 12 16  1  0
 16 17  2  0
 16 18  2  0
 16 19  1  0
 15  7  1  0
 14 10  1  0
M  END
>  <pIC50>  (278) 
8.46

>  <ChEMBL_ID>  (278) 
CHEMBL85558

>  <document_journal>  (278) 
J. Med. Chem.

>  <bao_endpoint>  (278) 
BAO_0000190

>  <potential_duplicate>  (278) 
False

>  <uo_units>  (278) 
UO_0000065

>  <canonical_smiles>  (278) 
COCC(=O)Oc1ccc2nc(sc2c1)S(=O)(=O)N

>  <parent_molecule_chembl_id>  (278) 
CHEMBL85558

>  <assay_type>  (278) 
B

>  <src_id>  (278) 
1

>  <ligand_efficiency>  (278) 
{u'le': u'0.61', u'bei': u'27.97', u'sei': u'5.82', u'lle': u'7.8'}

>  <standard_flag>  (278) 
True

>  <molecule_chembl_id>  (278) 
CHEMBL85558

>  <target_organism>  (278) 
Homo sapiens

>  <standard_units>  (278) 
nM

>  <record_id>  (278) 
149008

>  <document_chembl_id>  (278) 
CHEMBL1124628

>  <bao_format>  (278) 
BAO_0000357

>  <data_validity_description>  (278) 
None

>  <activity_id>  (278) 
1271436

>  <standard_type>  (278) 
IC50

>  <target_chembl_id>  (278) 
CHEMBL205

>  <data_validity_comment>  (278) 
None

>  <published_value>  (278) 
3.5E-9

>  <document_year>  (278) 
1989

>  <target_pref_name>  (278) 
Carbonic anhydrase II

>  <assay_chembl_id>  (278) 
CHEMBL656574

>  <standard_relation>  (278) 
=

>  <assay_description>  (278) 
In vitro inhibition of human Carbonic Anhydrase II

>  <published_relation>  (278) 
=

>  <standard_value>  (278) 
3.5

>  <qudt_units>  (278) 
http://www.openphacts.org/units/Nanomolar

>  <target_tax_id>  (278) 
9606

>  <bao_label>  (278) 
single protein format

>  <published_units>  (278) 
M

>  <pchembl_value>  (278) 
8.46

>  <published_type>  (278) 
I50

>  <activity_comment>  (278) 
None

$$$$

     RDKit          

 24 25  0  0  0  0  0  0  0  0999 V2000
    0.0000    0.0000    0.0000 C   0  0  0  0  0  0  0  0  0  0  0  0
    0.0000    0.0000    0.0000 O   0  0  0  0  0  0  0  0  0  0  0  0
    0.0000    0.0000    0.0000 C   0  0  0  0  0  0  0  0  0  0  0  0
    0.0000    0.0000    0.0000 C   0  0  0  0  0  0  0  0  0  0  0  0
    0.0000    0.0000    0.0000 O   0  0  0  0  0  0  0  0  0  0  0  0
    0.0000    0.0000    0.0000 C   0  0  0  0  0  0  0  0  0  0  0  0
    0.0000    0.0000    0.0000 C   0  0  0  0  0  0  0  0  0  0  0  0
    0.0000    0.0000    0.0000 C   0  0  0  0  0  0  0  0  0  0  0  0
    0.0000    0.0000    0.0000 C   0  0  0  0  0  0  0  0  0  0  0  0
    0.0000    0.0000    0.0000 O   0  0  0  0  0  0  0  0  0  0  0  0
    0.0000    0.0000    0.0000 O   0  0  0  0  0  0  0  0  0  0  0  0
    0.0000    0.0000    0.0000 C   0  0  0  0  0  0  0  0  0  0  0  0
    0.0000    0.0000    0.0000 C   0  0  0  0  0  0  0  0  0  0  0  0
    0.0000    0.0000    0.0000 C   0  0  0  0  0  0  0  0  0  0  0  0
    0.0000    0.0000    0.0000 C   0  0  0  0  0  0  0  0  0  0  0  0
    0.0000    0.0000    0.0000 N   0  0  0  0  0  0  0  0  0  0  0  0
    0.0000    0.0000    0.0000 C   0  0  0  0  0  0  0  0  0  0  0  0
    0.0000    0.0000    0.0000 S   0  0  0  0  0  0  0  0  0  0  0  0
    0.0000    0.0000    0.0000 C   0  0  0  0  0  0  0  0  0  0  0  0
    0.0000    0.0000    0.0000 C   0  0  0  0  0  0  0  0  0  0  0  0
    0.0000    0.0000    0.0000 S   0  0  0  0  0  0  0  0  0  0  0  0
    0.0000    0.0000    0.0000 O   0  0  0  0  0  0  0  0  0  0  0  0
    0.0000    0.0000    0.0000 O   0  0  0  0  0  0  0  0  0  0  0  0
    0.0000    0.0000    0.0000 N   0  0  0  0  0  0  0  0  0  0  0  0
  1  2  1  0
  2  3  1  0
  3  4  1  0
  4  5  1  0
  5  6  1  0
  6  7  1  0
  6  8  1  0
  6  9  1  0
  9 10  2  0
  9 11  1  0
 11 12  1  0
 12 13  2  0
 13 14  1  0
 14 15  2  0
 15 16  1  0
 16 17  2  0
 17 18  1  0
 18 19  1  0
 19 20  2  0
 17 21  1  0
 21 22  2  0
 21 23  2  0
 21 24  1  0
 20 12  1  0
 19 15  1  0
M  END
>  <pIC50>  (279) 
8.85

>  <ChEMBL_ID>  (279) 
CHEMBL309608

>  <document_journal>  (279) 
J. Med. Chem.

>  <bao_endpoint>  (279) 
BAO_0000190

>  <potential_duplicate>  (279) 
False

>  <uo_units>  (279) 
UO_0000065

>  <canonical_smiles>  (279) 
COCCOC(C)(C)C(=O)Oc1ccc2nc(sc2c1)S(=O)(=O)N

>  <parent_molecule_chembl_id>  (279) 
CHEMBL309608

>  <assay_type>  (279) 
B

>  <src_id>  (279) 
1

>  <ligand_efficiency>  (279) 
{u'le': u'0.5', u'bei': u'23.65', u'sei': u'5.73', u'lle': u'7.52'}

>  <standard_flag>  (279) 
True

>  <molecule_chembl_id>  (279) 
CHEMBL309608

>  <target_organism>  (279) 
Homo sapiens

>  <standard_units>  (279) 
nM

>  <record_id>  (279) 
149005

>  <document_chembl_id>  (279) 
CHEMBL1124628

>  <bao_format>  (279) 
BAO_0000357

>  <data_validity_description>  (279) 
None

>  <activity_id>  (279) 
1272545

>  <standard_type>  (279) 
IC50

>  <target_chembl_id>  (279) 
CHEMBL205

>  <data_validity_comment>  (279) 
None

>  <published_value>  (279) 
1.4E-9

>  <document_year>  (279) 
1989

>  <target_pref_name>  (279) 
Carbonic anhydrase II

>  <assay_chembl_id>  (279) 
CHEMBL656574

>  <standard_relation>  (279) 
=

>  <assay_description>  (279) 
In vitro inhibition of human Carbonic Anhydrase II

>  <published_relation>  (279) 
=

>  <standard_value>  (279) 
1.4

>  <qudt_units>  (279) 
http://www.openphacts.org/units/Nanomolar

>  <target_tax_id>  (279) 
9606

>  <bao_label>  (279) 
single protein format

>  <published_units>  (279) 
M

>  <pchembl_value>  (279) 
8.85

>  <published_type>  (279) 
I50

>  <activity_comment>  (279) 
None

$$$$

     RDKit          

 28 29  0  0  0  0  0  0  0  0999 V2000
    0.0000    0.0000    0.0000 C   0  0  0  0  0  0  0  0  0  0  0  0
    0.0000    0.0000    0.0000 C   0  0  0  0  0  0  0  0  0  0  0  0
    0.0000    0.0000    0.0000 O   0  0  0  0  0  0  0  0  0  0  0  0
    0.0000    0.0000    0.0000 C   0  0  0  0  0  0  0  0  0  0  0  0
    0.0000    0.0000    0.0000 C   0  0  0  0  0  0  0  0  0  0  0  0
    0.0000    0.0000    0.0000 O   0  0  0  0  0  0  0  0  0  0  0  0
    0.0000    0.0000    0.0000 C   0  0  0  0  0  0  0  0  0  0  0  0
    0.0000    0.0000    0.0000 C   0  0  0  0  0  0  0  0  0  0  0  0
    0.0000    0.0000    0.0000 O   0  0  0  0  0  0  0  0  0  0  0  0
    0.0000    0.0000    0.0000 C   0  0  0  0  0  0  0  0  0  0  0  0
    0.0000    0.0000    0.0000 C   0  0  0  0  0  0  0  0  0  0  0  0
    0.0000    0.0000    0.0000 C   0  0  0  0  0  0  0  0  0  0  0  0
    0.0000    0.0000    0.0000 C   0  0  0  0  0  0  0  0  0  0  0  0
    0.0000    0.0000    0.0000 O   0  0  0  0  0  0  0  0  0  0  0  0
    0.0000    0.0000    0.0000 O   0  0  0  0  0  0  0  0  0  0  0  0
    0.0000    0.0000    0.0000 C   0  0  0  0  0  0  0  0  0  0  0  0
    0.0000    0.0000    0.0000 C   0  0  0  0  0  0  0  0  0  0  0  0
    0.0000    0.0000    0.0000 C   0  0  0  0  0  0  0  0  0  0  0  0
    0.0000    0.0000    0.0000 C   0  0  0  0  0  0  0  0  0  0  0  0
    0.0000    0.0000    0.0000 N   0  0  0  0  0  0  0  0  0  0  0  0
    0.0000    0.0000    0.0000 C   0  0  0  0  0  0  0  0  0  0  0  0
    0.0000    0.0000    0.0000 S   0  0  0  0  0  0  0  0  0  0  0  0
    0.0000    0.0000    0.0000 C   0  0  0  0  0  0  0  0  0  0  0  0
    0.0000    0.0000    0.0000 C   0  0  0  0  0  0  0  0  0  0  0  0
    0.0000    0.0000    0.0000 S   0  0  0  0  0  0  0  0  0  0  0  0
    0.0000    0.0000    0.0000 O   0  0  0  0  0  0  0  0  0  0  0  0
    0.0000    0.0000    0.0000 O   0  0  0  0  0  0  0  0  0  0  0  0
    0.0000    0.0000    0.0000 N   0  0  0  0  0  0  0  0  0  0  0  0
  1  2  1  0
  2  3  1  0
  3  4  1  0
  4  5  1  0
  5  6  1  0
  6  7  1  0
  7  8  1  0
  8  9  1  0
  9 10  1  0
 10 11  1  0
 10 12  1  0
 10 13  1  0
 13 14  2  0
 13 15  1  0
 15 16  1  0
 16 17  2  0
 17 18  1  0
 18 19  2  0
 19 20  1  0
 20 21  2  0
 21 22  1  0
 22 23  1  0
 23 24  2  0
 21 25  1  0
 25 26  2  0
 25 27  2  0
 25 28  1  0
 24 16  1  0
 23 19  1  0
M  END
>  <pIC50>  (280) 
8.5

>  <ChEMBL_ID>  (280) 
CHEMBL311810

>  <document_journal>  (280) 
J. Med. Chem.

>  <bao_endpoint>  (280) 
BAO_0000190

>  <potential_duplicate>  (280) 
False

>  <uo_units>  (280) 
UO_0000065

>  <canonical_smiles>  (280) 
CCOCCOCCOC(C)(C)C(=O)Oc1ccc2nc(sc2c1)S(=O)(=O)N

>  <parent_molecule_chembl_id>  (280) 
CHEMBL311810

>  <assay_type>  (280) 
B

>  <src_id>  (280) 
1

>  <ligand_efficiency>  (280) 
{u'le': u'0.41', u'bei': u'19.64', u'sei': u'5.19', u'lle': u'6.94'}

>  <standard_flag>  (280) 
True

>  <molecule_chembl_id>  (280) 
CHEMBL311810

>  <target_organism>  (280) 
Homo sapiens

>  <standard_units>  (280) 
nM

>  <record_id>  (280) 
149004

>  <document_chembl_id>  (280) 
CHEMBL1124628

>  <bao_format>  (280) 
BAO_0000357

>  <data_validity_description>  (280) 
None

>  <activity_id>  (280) 
1272549

>  <standard_type>  (280) 
IC50

>  <target_chembl_id>  (280) 
CHEMBL205

>  <data_validity_comment>  (280) 
None

>  <published_value>  (280) 
3.2E-9

>  <document_year>  (280) 
1989

>  <target_pref_name>  (280) 
Carbonic anhydrase II

>  <assay_chembl_id>  (280) 
CHEMBL656574

>  <standard_relation>  (280) 
=

>  <assay_description>  (280) 
In vitro inhibition of human Carbonic Anhydrase II

>  <published_relation>  (280) 
=

>  <standard_value>  (280) 
3.2

>  <qudt_units>  (280) 
http://www.openphacts.org/units/Nanomolar

>  <target_tax_id>  (280) 
9606

>  <bao_label>  (280) 
single protein format

>  <published_units>  (280) 
M

>  <pchembl_value>  (280) 
8.5

>  <published_type>  (280) 
I50

>  <activity_comment>  (280) 
None

$$$$

     RDKit          

 19 20  0  0  0  0  0  0  0  0999 V2000
    0.0000    0.0000    0.0000 C   0  0  0  0  0  0  0  0  0  0  0  0
    0.0000    0.0000    0.0000 N   0  0  0  0  0  0  0  0  0  0  0  0
    0.0000    0.0000    0.0000 C   0  0  0  0  0  0  0  0  0  0  0  0
    0.0000    0.0000    0.0000 C   0  0  0  0  0  0  0  0  0  0  0  0
    0.0000    0.0000    0.0000 O   0  0  0  0  0  0  0  0  0  0  0  0
    0.0000    0.0000    0.0000 O   0  0  0  0  0  0  0  0  0  0  0  0
    0.0000    0.0000    0.0000 C   0  0  0  0  0  0  0  0  0  0  0  0
    0.0000    0.0000    0.0000 C   0  0  0  0  0  0  0  0  0  0  0  0
    0.0000    0.0000    0.0000 C   0  0  0  0  0  0  0  0  0  0  0  0
    0.0000    0.0000    0.0000 C   0  0  0  0  0  0  0  0  0  0  0  0
    0.0000    0.0000    0.0000 N   0  0  0  0  0  0  0  0  0  0  0  0
    0.0000    0.0000    0.0000 C   0  0  0  0  0  0  0  0  0  0  0  0
    0.0000    0.0000    0.0000 S   0  0  0  0  0  0  0  0  0  0  0  0
    0.0000    0.0000    0.0000 C   0  0  0  0  0  0  0  0  0  0  0  0
    0.0000    0.0000    0.0000 C   0  0  0  0  0  0  0  0  0  0  0  0
    0.0000    0.0000    0.0000 S   0  0  0  0  0  0  0  0  0  0  0  0
    0.0000    0.0000    0.0000 O   0  0  0  0  0  0  0  0  0  0  0  0
    0.0000    0.0000    0.0000 O   0  0  0  0  0  0  0  0  0  0  0  0
    0.0000    0.0000    0.0000 N   0  0  0  0  0  0  0  0  0  0  0  0
  1  2  1  0
  2  3  1  0
  2  4  1  0
  4  5  2  0
  4  6  1  0
  6  7  1  0
  7  8  2  0
  8  9  1  0
  9 10  2  0
 10 11  1  0
 11 12  2  0
 12 13  1  0
 13 14  1  0
 14 15  2  0
 12 16  1  0
 16 17  2  0
 16 18  2  0
 16 19  1  0
 15  7  1  0
 14 10  1  0
M  END
>  <pIC50>  (281) 
8.8

>  <ChEMBL_ID>  (281) 
CHEMBL311904

>  <document_journal>  (281) 
J. Med. Chem.

>  <bao_endpoint>  (281) 
BAO_0000190

>  <potential_duplicate>  (281) 
False

>  <uo_units>  (281) 
UO_0000065

>  <canonical_smiles>  (281) 
CN(C)C(=O)Oc1ccc2nc(sc2c1)S(=O)(=O)N

>  <parent_molecule_chembl_id>  (281) 
CHEMBL311904

>  <assay_type>  (281) 
B

>  <src_id>  (281) 
1

>  <ligand_efficiency>  (281) 
{u'le': u'0.63', u'bei': u'29.19', u'sei': u'6.32', u'lle': u'7.67'}

>  <standard_flag>  (281) 
True

>  <molecule_chembl_id>  (281) 
CHEMBL311904

>  <target_organism>  (281) 
Homo sapiens

>  <standard_units>  (281) 
nM

>  <record_id>  (281) 
149015

>  <document_chembl_id>  (281) 
CHEMBL1124628

>  <bao_format>  (281) 
BAO_0000357

>  <data_validity_description>  (281) 
None

>  <activity_id>  (281) 
1272553

>  <standard_type>  (281) 
IC50

>  <target_chembl_id>  (281) 
CHEMBL205

>  <data_validity_comment>  (281) 
None

>  <published_value>  (281) 
1.6E-9

>  <document_year>  (281) 
1989

>  <target_pref_name>  (281) 
Carbonic anhydrase II

>  <assay_chembl_id>  (281) 
CHEMBL656574

>  <standard_relation>  (281) 
=

>  <assay_description>  (281) 
In vitro inhibition of human Carbonic Anhydrase II

>  <published_relation>  (281) 
=

>  <standard_value>  (281) 
1.6

>  <qudt_units>  (281) 
http://www.openphacts.org/units/Nanomolar

>  <target_tax_id>  (281) 
9606

>  <bao_label>  (281) 
single protein format

>  <published_units>  (281) 
M

>  <pchembl_value>  (281) 
8.8

>  <published_type>  (281) 
I50

>  <activity_comment>  (281) 
None

$$$$

     RDKit          

 27 28  0  0  0  0  0  0  0  0999 V2000
    0.0000    0.0000    0.0000 C   0  0  0  0  0  0  0  0  0  0  0  0
    0.0000    0.0000    0.0000 C   0  0  0  0  0  0  0  0  0  0  0  0
    0.0000    0.0000    0.0000 C   0  0  0  0  0  0  0  0  0  0  0  0
    0.0000    0.0000    0.0000 C   0  0  0  0  0  0  0  0  0  0  0  0
    0.0000    0.0000    0.0000 C   0  0  0  0  0  0  0  0  0  0  0  0
    0.0000    0.0000    0.0000 O   0  0  0  0  0  0  0  0  0  0  0  0
    0.0000    0.0000    0.0000 N   0  0  0  0  0  0  0  0  0  0  0  0
    0.0000    0.0000    0.0000 C   0  0  0  0  0  0  0  0  0  0  0  0
    0.0000    0.0000    0.0000 C   0  0  0  0  0  0  0  0  0  0  0  0
    0.0000    0.0000    0.0000 O   0  0  0  0  0  0  0  0  0  0  0  0
    0.0000    0.0000    0.0000 C   0  0  0  0  0  0  0  0  0  0  0  0
    0.0000    0.0000    0.0000 O   0  0  0  0  0  0  0  0  0  0  0  0
    0.0000    0.0000    0.0000 C   0  0  0  0  0  0  0  0  0  0  0  0
    0.0000    0.0000    0.0000 C   0  0  0  0  0  0  0  0  0  0  0  0
    0.0000    0.0000    0.0000 C   0  0  0  0  0  0  0  0  0  0  0  0
    0.0000    0.0000    0.0000 C   0  0  0  0  0  0  0  0  0  0  0  0
    0.0000    0.0000    0.0000 C   0  0  0  0  0  0  0  0  0  0  0  0
    0.0000    0.0000    0.0000 C   0  0  0  0  0  0  0  0  0  0  0  0
    0.0000    0.0000    0.0000 C   0  0  0  0  0  0  0  0  0  0  0  0
    0.0000    0.0000    0.0000 N   0  0  0  0  0  0  0  0  0  0  0  0
    0.0000    0.0000    0.0000 C   0  0  0  0  0  0  0  0  0  0  0  0
    0.0000    0.0000    0.0000 S   0  0  0  0  0  0  0  0  0  0  0  0
    0.0000    0.0000    0.0000 C   0  0  0  0  0  0  0  0  0  0  0  0
    0.0000    0.0000    0.0000 S   0  0  0  0  0  0  0  0  0  0  0  0
    0.0000    0.0000    0.0000 O   0  0  0  0  0  0  0  0  0  0  0  0
    0.0000    0.0000    0.0000 O   0  0  0  0  0  0  0  0  0  0  0  0
    0.0000    0.0000    0.0000 N   0  0  0  0  0  0  0  0  0  0  0  0
  1  2  1  0
  2  3  1  0
  2  4  1  0
  2  5  1  0
  5  6  2  0
  5  7  1  0
  7  8  1  0
  8  9  2  0
  9 10  1  0
 10 11  1  0
 11 12  2  0
 11 13  1  0
 13 14  1  0
 13 15  1  0
 13 16  1  0
  9 17  1  0
 17 18  2  0
 18 19  1  0
 19 20  1  0
 20 21  2  0
 21 22  1  0
 22 23  1  0
 21 24  1  0
 24 25  2  0
 24 26  2  0
 24 27  1  0
 23  8  1  0
 23 19  2  0
M  END
>  <pIC50>  (282) 
7.5

>  <ChEMBL_ID>  (282) 
CHEMBL79472

>  <document_journal>  (282) 
J. Med. Chem.

>  <bao_endpoint>  (282) 
BAO_0000190

>  <potential_duplicate>  (282) 
False

>  <uo_units>  (282) 
UO_0000065

>  <canonical_smiles>  (282) 
CC(C)(C)C(=O)Nc1c(OC(=O)C(C)(C)C)ccc2nc(sc12)S(=O)(=O)N

>  <parent_molecule_chembl_id>  (282) 
CHEMBL79472

>  <assay_type>  (282) 
B

>  <src_id>  (282) 
1

>  <ligand_efficiency>  (282) 
{u'le': u'0.38', u'bei': u'18.12', u'sei': u'4.54', u'lle': u'4.35'}

>  <standard_flag>  (282) 
True

>  <molecule_chembl_id>  (282) 
CHEMBL79472

>  <target_organism>  (282) 
Homo sapiens

>  <standard_units>  (282) 
nM

>  <record_id>  (282) 
149025

>  <document_chembl_id>  (282) 
CHEMBL1124628

>  <bao_format>  (282) 
BAO_0000357

>  <data_validity_description>  (282) 
None

>  <activity_id>  (282) 
1273795

>  <standard_type>  (282) 
IC50

>  <target_chembl_id>  (282) 
CHEMBL205

>  <data_validity_comment>  (282) 
None

>  <published_value>  (282) 
3.2E-8

>  <document_year>  (282) 
1989

>  <target_pref_name>  (282) 
Carbonic anhydrase II

>  <assay_chembl_id>  (282) 
CHEMBL656574

>  <standard_relation>  (282) 
=

>  <assay_description>  (282) 
In vitro inhibition of human Carbonic Anhydrase II

>  <published_relation>  (282) 
=

>  <standard_value>  (282) 
32

>  <qudt_units>  (282) 
http://www.openphacts.org/units/Nanomolar

>  <target_tax_id>  (282) 
9606

>  <bao_label>  (282) 
single protein format

>  <published_units>  (282) 
M

>  <pchembl_value>  (282) 
7.5

>  <published_type>  (282) 
I50

>  <activity_comment>  (282) 
None

$$$$

     RDKit          

 21 22  0  0  0  0  0  0  0  0999 V2000
    0.0000    0.0000    0.0000 C   0  0  0  0  0  0  0  0  0  0  0  0
    0.0000    0.0000    0.0000 C   0  0  0  0  0  0  0  0  0  0  0  0
    0.0000    0.0000    0.0000 C   0  0  0  0  0  0  0  0  0  0  0  0
    0.0000    0.0000    0.0000 C   0  0  0  0  0  0  0  0  0  0  0  0
    0.0000    0.0000    0.0000 O   0  0  0  0  0  0  0  0  0  0  0  0
    0.0000    0.0000    0.0000 C   0  0  0  0  0  0  0  0  0  0  0  0
    0.0000    0.0000    0.0000 O   0  0  0  0  0  0  0  0  0  0  0  0
    0.0000    0.0000    0.0000 O   0  0  0  0  0  0  0  0  0  0  0  0
    0.0000    0.0000    0.0000 C   0  0  0  0  0  0  0  0  0  0  0  0
    0.0000    0.0000    0.0000 C   0  0  0  0  0  0  0  0  0  0  0  0
    0.0000    0.0000    0.0000 C   0  0  0  0  0  0  0  0  0  0  0  0
    0.0000    0.0000    0.0000 C   0  0  0  0  0  0  0  0  0  0  0  0
    0.0000    0.0000    0.0000 N   0  0  0  0  0  0  0  0  0  0  0  0
    0.0000    0.0000    0.0000 C   0  0  0  0  0  0  0  0  0  0  0  0
    0.0000    0.0000    0.0000 S   0  0  0  0  0  0  0  0  0  0  0  0
    0.0000    0.0000    0.0000 C   0  0  0  0  0  0  0  0  0  0  0  0
    0.0000    0.0000    0.0000 C   0  0  0  0  0  0  0  0  0  0  0  0
    0.0000    0.0000    0.0000 S   0  0  0  0  0  0  0  0  0  0  0  0
    0.0000    0.0000    0.0000 O   0  0  0  0  0  0  0  0  0  0  0  0
    0.0000    0.0000    0.0000 O   0  0  0  0  0  0  0  0  0  0  0  0
    0.0000    0.0000    0.0000 N   0  0  0  0  0  0  0  0  0  0  0  0
  1  2  1  0
  2  3  1  0
  2  4  1  0
  4  5  1  0
  5  6  1  0
  6  7  2  0
  6  8  1  0
  8  9  1  0
  9 10  2  0
 10 11  1  0
 11 12  2  0
 12 13  1  0
 13 14  2  0
 14 15  1  0
 15 16  1  0
 16 17  2  0
 14 18  1  0
 18 19  2  0
 18 20  2  0
 18 21  1  0
 17  9  1  0
 16 12  1  0
M  END
>  <pIC50>  (283) 
8.66

>  <ChEMBL_ID>  (283) 
CHEMBL79951

>  <document_journal>  (283) 
J. Med. Chem.

>  <bao_endpoint>  (283) 
BAO_0000190

>  <potential_duplicate>  (283) 
False

>  <uo_units>  (283) 
UO_0000065

>  <canonical_smiles>  (283) 
CC(C)COC(=O)Oc1ccc2nc(sc2c1)S(=O)(=O)N

>  <parent_molecule_chembl_id>  (283) 
CHEMBL79951

>  <assay_type>  (283) 
B

>  <src_id>  (283) 
1

>  <ligand_efficiency>  (283) 
{u'le': u'0.56', u'bei': u'26.2', u'sei': u'5.96', u'lle': u'5.9'}

>  <standard_flag>  (283) 
True

>  <molecule_chembl_id>  (283) 
CHEMBL79951

>  <target_organism>  (283) 
Homo sapiens

>  <standard_units>  (283) 
nM

>  <record_id>  (283) 
149017

>  <document_chembl_id>  (283) 
CHEMBL1124628

>  <bao_format>  (283) 
BAO_0000357

>  <data_validity_description>  (283) 
None

>  <activity_id>  (283) 
1273796

>  <standard_type>  (283) 
IC50

>  <target_chembl_id>  (283) 
CHEMBL205

>  <data_validity_comment>  (283) 
None

>  <published_value>  (283) 
2.2E-9

>  <document_year>  (283) 
1989

>  <target_pref_name>  (283) 
Carbonic anhydrase II

>  <assay_chembl_id>  (283) 
CHEMBL656574

>  <standard_relation>  (283) 
=

>  <assay_description>  (283) 
In vitro inhibition of human Carbonic Anhydrase II

>  <published_relation>  (283) 
=

>  <standard_value>  (283) 
2.2

>  <qudt_units>  (283) 
http://www.openphacts.org/units/Nanomolar

>  <target_tax_id>  (283) 
9606

>  <bao_label>  (283) 
single protein format

>  <published_units>  (283) 
M

>  <pchembl_value>  (283) 
8.66

>  <published_type>  (283) 
I50

>  <activity_comment>  (283) 
None

$$$$

     RDKit          

 22 23  0  0  0  0  0  0  0  0999 V2000
    0.0000    0.0000    0.0000 C   0  0  0  0  0  0  0  0  0  0  0  0
    0.0000    0.0000    0.0000 C   0  0  0  0  0  0  0  0  0  0  0  0
    0.0000    0.0000    0.0000 O   0  0  0  0  0  0  0  0  0  0  0  0
    0.0000    0.0000    0.0000 P   0  0  0  0  0  0  0  0  0  0  0  0
    0.0000    0.0000    0.0000 O   0  0  0  0  0  0  0  0  0  0  0  0
    0.0000    0.0000    0.0000 O   0  0  0  0  0  0  0  0  0  0  0  0
    0.0000    0.0000    0.0000 C   0  0  0  0  0  0  0  0  0  0  0  0
    0.0000    0.0000    0.0000 C   0  0  0  0  0  0  0  0  0  0  0  0
    0.0000    0.0000    0.0000 O   0  0  0  0  0  0  0  0  0  0  0  0
    0.0000    0.0000    0.0000 C   0  0  0  0  0  0  0  0  0  0  0  0
    0.0000    0.0000    0.0000 C   0  0  0  0  0  0  0  0  0  0  0  0
    0.0000    0.0000    0.0000 C   0  0  0  0  0  0  0  0  0  0  0  0
    0.0000    0.0000    0.0000 C   0  0  0  0  0  0  0  0  0  0  0  0
    0.0000    0.0000    0.0000 N   0  0  0  0  0  0  0  0  0  0  0  0
    0.0000    0.0000    0.0000 C   0  0  0  0  0  0  0  0  0  0  0  0
    0.0000    0.0000    0.0000 S   0  0  0  0  0  0  0  0  0  0  0  0
    0.0000    0.0000    0.0000 C   0  0  0  0  0  0  0  0  0  0  0  0
    0.0000    0.0000    0.0000 C   0  0  0  0  0  0  0  0  0  0  0  0
    0.0000    0.0000    0.0000 S   0  0  0  0  0  0  0  0  0  0  0  0
    0.0000    0.0000    0.0000 O   0  0  0  0  0  0  0  0  0  0  0  0
    0.0000    0.0000    0.0000 O   0  0  0  0  0  0  0  0  0  0  0  0
    0.0000    0.0000    0.0000 N   0  0  0  0  0  0  0  0  0  0  0  0
  1  2  1  0
  2  3  1  0
  3  4  1  0
  4  5  2  0
  4  6  1  0
  6  7  1  0
  7  8  1  0
  4  9  1  0
  9 10  1  0
 10 11  2  0
 11 12  1  0
 12 13  2  0
 13 14  1  0
 14 15  2  0
 15 16  1  0
 16 17  1  0
 17 18  2  0
 15 19  1  0
 19 20  2  0
 19 21  2  0
 19 22  1  0
 18 10  1  0
 17 13  1  0
M  END
>  <pIC50>  (284) 
8.75

>  <ChEMBL_ID>  (284) 
CHEMBL310848

>  <document_journal>  (284) 
J. Med. Chem.

>  <bao_endpoint>  (284) 
BAO_0000190

>  <potential_duplicate>  (284) 
False

>  <uo_units>  (284) 
UO_0000065

>  <canonical_smiles>  (284) 
CCOP(=O)(OCC)Oc1ccc2nc(sc2c1)S(=O)(=O)N

>  <parent_molecule_chembl_id>  (284) 
CHEMBL310848

>  <assay_type>  (284) 
B

>  <src_id>  (284) 
1

>  <ligand_efficiency>  (284) 
{u'le': u'0.54', u'bei': u'23.87', u'sei': u'5.32', u'lle': u'7.3'}

>  <standard_flag>  (284) 
True

>  <molecule_chembl_id>  (284) 
CHEMBL310848

>  <target_organism>  (284) 
Homo sapiens

>  <standard_units>  (284) 
nM

>  <record_id>  (284) 
149014

>  <document_chembl_id>  (284) 
CHEMBL1124628

>  <bao_format>  (284) 
BAO_0000357

>  <data_validity_description>  (284) 
None

>  <activity_id>  (284) 
1276558

>  <standard_type>  (284) 
IC50

>  <target_chembl_id>  (284) 
CHEMBL205

>  <data_validity_comment>  (284) 
None

>  <published_value>  (284) 
1.8E-9

>  <document_year>  (284) 
1989

>  <target_pref_name>  (284) 
Carbonic anhydrase II

>  <assay_chembl_id>  (284) 
CHEMBL656574

>  <standard_relation>  (284) 
=

>  <assay_description>  (284) 
In vitro inhibition of human Carbonic Anhydrase II

>  <published_relation>  (284) 
=

>  <standard_value>  (284) 
1.8

>  <qudt_units>  (284) 
http://www.openphacts.org/units/Nanomolar

>  <target_tax_id>  (284) 
9606

>  <bao_label>  (284) 
single protein format

>  <published_units>  (284) 
M

>  <pchembl_value>  (284) 
8.75

>  <published_type>  (284) 
I50

>  <activity_comment>  (284) 
None

$$$$

     RDKit          

 23 24  0  0  0  0  0  0  0  0999 V2000
    0.0000    0.0000    0.0000 C   0  0  0  0  0  0  0  0  0  0  0  0
    0.0000    0.0000    0.0000 C   0  0  0  0  0  0  0  0  0  0  0  0
    0.0000    0.0000    0.0000 C   0  0  0  0  0  0  0  0  0  0  0  0
    0.0000    0.0000    0.0000 C   0  0  0  0  0  0  0  0  0  0  0  0
    0.0000    0.0000    0.0000 C   0  0  0  0  0  0  0  0  0  0  0  0
    0.0000    0.0000    0.0000 C   0  0  0  0  0  0  0  0  0  0  0  0
    0.0000    0.0000    0.0000 C   0  0  0  0  0  0  0  0  0  0  0  0
    0.0000    0.0000    0.0000 C   0  0  0  0  0  0  0  0  0  0  0  0
    0.0000    0.0000    0.0000 O   0  0  0  0  0  0  0  0  0  0  0  0
    0.0000    0.0000    0.0000 O   0  0  0  0  0  0  0  0  0  0  0  0
    0.0000    0.0000    0.0000 C   0  0  0  0  0  0  0  0  0  0  0  0
    0.0000    0.0000    0.0000 C   0  0  0  0  0  0  0  0  0  0  0  0
    0.0000    0.0000    0.0000 C   0  0  0  0  0  0  0  0  0  0  0  0
    0.0000    0.0000    0.0000 C   0  0  0  0  0  0  0  0  0  0  0  0
    0.0000    0.0000    0.0000 N   0  0  0  0  0  0  0  0  0  0  0  0
    0.0000    0.0000    0.0000 C   0  0  0  0  0  0  0  0  0  0  0  0
    0.0000    0.0000    0.0000 S   0  0  0  0  0  0  0  0  0  0  0  0
    0.0000    0.0000    0.0000 C   0  0  0  0  0  0  0  0  0  0  0  0
    0.0000    0.0000    0.0000 C   0  0  0  0  0  0  0  0  0  0  0  0
    0.0000    0.0000    0.0000 S   0  0  0  0  0  0  0  0  0  0  0  0
    0.0000    0.0000    0.0000 O   0  0  0  0  0  0  0  0  0  0  0  0
    0.0000    0.0000    0.0000 O   0  0  0  0  0  0  0  0  0  0  0  0
    0.0000    0.0000    0.0000 N   0  0  0  0  0  0  0  0  0  0  0  0
  1  2  1  0
  2  3  1  0
  3  4  1  0
  4  5  1  0
  5  6  1  0
  6  7  1  0
  7  8  1  0
  8  9  2  0
  8 10  1  0
 10 11  1  0
 11 12  2  0
 12 13  1  0
 13 14  2  0
 14 15  1  0
 15 16  2  0
 16 17  1  0
 17 18  1  0
 18 19  2  0
 16 20  1  0
 20 21  2  0
 20 22  2  0
 20 23  1  0
 19 11  1  0
 18 14  1  0
M  END
>  <pIC50>  (285) 
8.8

>  <ChEMBL_ID>  (285) 
CHEMBL83708

>  <document_journal>  (285) 
J. Med. Chem.

>  <bao_endpoint>  (285) 
BAO_0000190

>  <potential_duplicate>  (285) 
False

>  <uo_units>  (285) 
UO_0000065

>  <canonical_smiles>  (285) 
CCCCCCCC(=O)Oc1ccc2nc(sc2c1)S(=O)(=O)N

>  <parent_molecule_chembl_id>  (285) 
CHEMBL83708

>  <assay_type>  (285) 
B

>  <src_id>  (285) 
1

>  <ligand_efficiency>  (285) 
{u'le': u'0.52', u'bei': u'24.68', u'sei': u'6.47', u'lle': u'4.92'}

>  <standard_flag>  (285) 
True

>  <molecule_chembl_id>  (285) 
CHEMBL83708

>  <target_organism>  (285) 
Homo sapiens

>  <standard_units>  (285) 
nM

>  <record_id>  (285) 
149029

>  <document_chembl_id>  (285) 
CHEMBL1124628

>  <bao_format>  (285) 
BAO_0000357

>  <data_validity_description>  (285) 
None

>  <activity_id>  (285) 
1276624

>  <standard_type>  (285) 
IC50

>  <target_chembl_id>  (285) 
CHEMBL205

>  <data_validity_comment>  (285) 
None

>  <published_value>  (285) 
1.6E-9

>  <document_year>  (285) 
1989

>  <target_pref_name>  (285) 
Carbonic anhydrase II

>  <assay_chembl_id>  (285) 
CHEMBL656575

>  <standard_relation>  (285) 
=

>  <assay_description>  (285) 
In vitro inhibitory activity against human Carbonic anhydrase II

>  <published_relation>  (285) 
=

>  <standard_value>  (285) 
1.6

>  <qudt_units>  (285) 
http://www.openphacts.org/units/Nanomolar

>  <target_tax_id>  (285) 
9606

>  <bao_label>  (285) 
single protein format

>  <published_units>  (285) 
M

>  <pchembl_value>  (285) 
8.8

>  <published_type>  (285) 
I50

>  <activity_comment>  (285) 
None

$$$$

     RDKit          

 27 28  0  0  0  0  0  0  0  0999 V2000
    0.0000    0.0000    0.0000 C   0  0  0  0  0  0  0  0  0  0  0  0
    0.0000    0.0000    0.0000 C   0  0  0  0  0  0  0  0  0  0  0  0
    0.0000    0.0000    0.0000 C   0  0  0  0  0  0  0  0  0  0  0  0
    0.0000    0.0000    0.0000 C   0  0  0  0  0  0  0  0  0  0  0  0
    0.0000    0.0000    0.0000 C   0  0  0  0  0  0  0  0  0  0  0  0
    0.0000    0.0000    0.0000 C   0  0  0  0  0  0  0  0  0  0  0  0
    0.0000    0.0000    0.0000 C   0  0  0  0  0  0  0  0  0  0  0  0
    0.0000    0.0000    0.0000 C   0  0  0  0  0  0  0  0  0  0  0  0
    0.0000    0.0000    0.0000 C   0  0  0  0  0  0  0  0  0  0  0  0
    0.0000    0.0000    0.0000 C   0  0  0  0  0  0  0  0  0  0  0  0
    0.0000    0.0000    0.0000 C   0  0  0  0  0  0  0  0  0  0  0  0
    0.0000    0.0000    0.0000 C   0  0  0  0  0  0  0  0  0  0  0  0
    0.0000    0.0000    0.0000 O   0  0  0  0  0  0  0  0  0  0  0  0
    0.0000    0.0000    0.0000 O   0  0  0  0  0  0  0  0  0  0  0  0
    0.0000    0.0000    0.0000 C   0  0  0  0  0  0  0  0  0  0  0  0
    0.0000    0.0000    0.0000 C   0  0  0  0  0  0  0  0  0  0  0  0
    0.0000    0.0000    0.0000 C   0  0  0  0  0  0  0  0  0  0  0  0
    0.0000    0.0000    0.0000 C   0  0  0  0  0  0  0  0  0  0  0  0
    0.0000    0.0000    0.0000 N   0  0  0  0  0  0  0  0  0  0  0  0
    0.0000    0.0000    0.0000 C   0  0  0  0  0  0  0  0  0  0  0  0
    0.0000    0.0000    0.0000 S   0  0  0  0  0  0  0  0  0  0  0  0
    0.0000    0.0000    0.0000 C   0  0  0  0  0  0  0  0  0  0  0  0
    0.0000    0.0000    0.0000 C   0  0  0  0  0  0  0  0  0  0  0  0
    0.0000    0.0000    0.0000 S   0  0  0  0  0  0  0  0  0  0  0  0
    0.0000    0.0000    0.0000 O   0  0  0  0  0  0  0  0  0  0  0  0
    0.0000    0.0000    0.0000 O   0  0  0  0  0  0  0  0  0  0  0  0
    0.0000    0.0000    0.0000 N   0  0  0  0  0  0  0  0  0  0  0  0
  1  2  1  0
  2  3  1  0
  3  4  1  0
  4  5  1  0
  5  6  1  0
  6  7  1  0
  7  8  1  0
  8  9  1  0
  9 10  1  0
 10 11  1  0
 11 12  1  0
 12 13  2  0
 12 14  1  0
 14 15  1  0
 15 16  2  0
 16 17  1  0
 17 18  2  0
 18 19  1  0
 19 20  2  0
 20 21  1  0
 21 22  1  0
 22 23  2  0
 20 24  1  0
 24 25  2  0
 24 26  2  0
 24 27  1  0
 23 15  1  0
 22 18  1  0
M  END
>  <pIC50>  (286) 
8.51

>  <ChEMBL_ID>  (286) 
CHEMBL83165

>  <document_journal>  (286) 
J. Med. Chem.

>  <bao_endpoint>  (286) 
BAO_0000190

>  <potential_duplicate>  (286) 
False

>  <uo_units>  (286) 
UO_0000065

>  <canonical_smiles>  (286) 
CCCCCCCCCCCC(=O)Oc1ccc2nc(sc2c1)S(=O)(=O)N

>  <parent_molecule_chembl_id>  (286) 
CHEMBL83165

>  <assay_type>  (286) 
B

>  <src_id>  (286) 
1

>  <ligand_efficiency>  (286) 
{u'le': u'0.43', u'bei': u'20.62', u'sei': u'6.26', u'lle': u'2.81'}

>  <standard_flag>  (286) 
True

>  <molecule_chembl_id>  (286) 
CHEMBL83165

>  <target_organism>  (286) 
Homo sapiens

>  <standard_units>  (286) 
nM

>  <record_id>  (286) 
149037

>  <document_chembl_id>  (286) 
CHEMBL1124628

>  <bao_format>  (286) 
BAO_0000357

>  <data_validity_description>  (286) 
None

>  <activity_id>  (286) 
1278089

>  <standard_type>  (286) 
IC50

>  <target_chembl_id>  (286) 
CHEMBL205

>  <data_validity_comment>  (286) 
None

>  <published_value>  (286) 
3.1E-9

>  <document_year>  (286) 
1989

>  <target_pref_name>  (286) 
Carbonic anhydrase II

>  <assay_chembl_id>  (286) 
CHEMBL656575

>  <standard_relation>  (286) 
=

>  <assay_description>  (286) 
In vitro inhibitory activity against human Carbonic anhydrase II

>  <published_relation>  (286) 
=

>  <standard_value>  (286) 
3.1

>  <qudt_units>  (286) 
http://www.openphacts.org/units/Nanomolar

>  <target_tax_id>  (286) 
9606

>  <bao_label>  (286) 
single protein format

>  <published_units>  (286) 
M

>  <pchembl_value>  (286) 
8.51

>  <published_type>  (286) 
I50

>  <activity_comment>  (286) 
None

$$$$

     RDKit          

 17 18  0  0  0  0  0  0  0  0999 V2000
    0.0000    0.0000    0.0000 C   0  0  0  0  0  0  0  0  0  0  0  0
    0.0000    0.0000    0.0000 N   0  0  0  0  0  0  0  0  0  0  0  0
    0.0000    0.0000    0.0000 C   0  0  0  0  0  0  0  0  0  0  0  0
    0.0000    0.0000    0.0000 C   0  0  0  0  0  0  0  0  0  0  0  0
    0.0000    0.0000    0.0000 C   0  0  0  0  0  0  0  0  0  0  0  0
    0.0000    0.0000    0.0000 S   0  0  0  0  0  0  0  0  0  0  0  0
    0.0000    0.0000    0.0000 O   0  0  0  0  0  0  0  0  0  0  0  0
    0.0000    0.0000    0.0000 O   0  0  0  0  0  0  0  0  0  0  0  0
    0.0000    0.0000    0.0000 C   0  0  0  0  0  0  0  0  0  0  0  0
    0.0000    0.0000    0.0000 S   0  0  0  0  0  0  0  0  0  0  0  0
    0.0000    0.0000    0.0000 C   0  0  0  0  0  0  0  0  0  0  0  0
    0.0000    0.0000    0.0000 C   0  0  0  0  0  0  0  0  0  0  0  0
    0.0000    0.0000    0.0000 C   0  0  0  0  0  0  0  0  0  0  0  0
    0.0000    0.0000    0.0000 S   0  0  0  0  0  0  0  0  0  0  0  0
    0.0000    0.0000    0.0000 O   0  0  0  0  0  0  0  0  0  0  0  0
    0.0000    0.0000    0.0000 O   0  0  0  0  0  0  0  0  0  0  0  0
    0.0000    0.0000    0.0000 N   0  0  0  0  0  0  0  0  0  0  0  0
  1  2  1  0
  2  3  1  0
  3  4  1  0
  4  5  1  0
  5  6  1  0
  6  7  2  0
  6  8  2  0
  6  9  1  0
  9 10  1  0
 10 11  1  0
 11 12  2  0
 12 13  1  0
 11 14  1  0
 14 15  2  0
 14 16  2  0
 14 17  1  0
 13  3  1  0
 13  9  2  0
M  END
>  <pIC50>  (287) 
8.23

>  <ChEMBL_ID>  (287) 
CHEMBL545245

>  <document_journal>  (287) 
J. Med. Chem.

>  <bao_endpoint>  (287) 
BAO_0000190

>  <potential_duplicate>  (287) 
False

>  <uo_units>  (287) 
UO_0000065

>  <canonical_smiles>  (287) 
Cl.CNC1CCS(=O)(=O)c2sc(cc12)S(=O)(=O)N

>  <parent_molecule_chembl_id>  (287) 
CHEMBL1193781

>  <assay_type>  (287) 
B

>  <src_id>  (287) 
1

>  <ligand_efficiency>  (287) 
{u'le': u'0.63', u'bei': u'26.51', u'sei': u'5.19', u'lle': u'8.44'}

>  <standard_flag>  (287) 
True

>  <molecule_chembl_id>  (287) 
CHEMBL545245

>  <target_organism>  (287) 
Homo sapiens

>  <standard_units>  (287) 
nM

>  <record_id>  (287) 
150706

>  <document_chembl_id>  (287) 
CHEMBL1124372

>  <bao_format>  (287) 
BAO_0000357

>  <data_validity_description>  (287) 
None

>  <activity_id>  (287) 
1279156

>  <standard_type>  (287) 
IC50

>  <target_chembl_id>  (287) 
CHEMBL205

>  <data_validity_comment>  (287) 
None

>  <published_value>  (287) 
13.9

>  <document_year>  (287) 
1989

>  <target_pref_name>  (287) 
Carbonic anhydrase II

>  <assay_chembl_id>  (287) 
CHEMBL656566

>  <standard_relation>  (287) 
=

>  <assay_description>  (287) 
50% inhibitory concentration against human carbonic anhydrase II (HCA II) after pre-incubation at 3 degree C

>  <published_relation>  (287) 
=

>  <standard_value>  (287) 
13.9

>  <qudt_units>  (287) 
http://www.openphacts.org/units/Nanomolar

>  <target_tax_id>  (287) 
9606

>  <bao_label>  (287) 
single protein format

>  <published_units>  (287) 
nM

>  <pchembl_value>  (287) 
7.86

>  <published_type>  (287) 
I50

>  <activity_comment>  (287) 
None

$$$$

     RDKit          

 19 20  0  0  0  0  0  0  0  0999 V2000
    0.0000    0.0000    0.0000 C   0  0  0  0  0  0  0  0  0  0  0  0
    0.0000    0.0000    0.0000 C   0  0  0  0  0  0  0  0  0  0  0  0
    0.0000    0.0000    0.0000 C   0  0  0  0  0  0  0  0  0  0  0  0
    0.0000    0.0000    0.0000 C   0  0  0  0  0  0  0  0  0  0  0  0
    0.0000    0.0000    0.0000 O   0  0  0  0  0  0  0  0  0  0  0  0
    0.0000    0.0000    0.0000 O   0  0  0  0  0  0  0  0  0  0  0  0
    0.0000    0.0000    0.0000 C   0  0  0  0  0  0  0  0  0  0  0  0
    0.0000    0.0000    0.0000 C   0  0  0  0  0  0  0  0  0  0  0  0
    0.0000    0.0000    0.0000 C   0  0  0  0  0  0  0  0  0  0  0  0
    0.0000    0.0000    0.0000 C   0  0  0  0  0  0  0  0  0  0  0  0
    0.0000    0.0000    0.0000 N   0  0  0  0  0  0  0  0  0  0  0  0
    0.0000    0.0000    0.0000 C   0  0  0  0  0  0  0  0  0  0  0  0
    0.0000    0.0000    0.0000 S   0  0  0  0  0  0  0  0  0  0  0  0
    0.0000    0.0000    0.0000 C   0  0  0  0  0  0  0  0  0  0  0  0
    0.0000    0.0000    0.0000 C   0  0  0  0  0  0  0  0  0  0  0  0
    0.0000    0.0000    0.0000 S   0  0  0  0  0  0  0  0  0  0  0  0
    0.0000    0.0000    0.0000 O   0  0  0  0  0  0  0  0  0  0  0  0
    0.0000    0.0000    0.0000 O   0  0  0  0  0  0  0  0  0  0  0  0
    0.0000    0.0000    0.0000 N   0  0  0  0  0  0  0  0  0  0  0  0
  1  2  1  0
  2  3  1  0
  3  4  1  0
  4  5  2  0
  4  6  1  0
  6  7  1  0
  7  8  2  0
  8  9  1  0
  9 10  2  0
 10 11  1  0
 11 12  2  0
 12 13  1  0
 13 14  1  0
 14 15  2  0
 12 16  1  0
 16 17  2  0
 16 18  2  0
 16 19  1  0
 15  7  1  0
 14 10  1  0
M  END
>  <pIC50>  (288) 
8.5

>  <ChEMBL_ID>  (288) 
CHEMBL312635

>  <document_journal>  (288) 
J. Med. Chem.

>  <bao_endpoint>  (288) 
BAO_0000190

>  <potential_duplicate>  (288) 
False

>  <uo_units>  (288) 
UO_0000065

>  <canonical_smiles>  (288) 
CCCC(=O)Oc1ccc2nc(sc2c1)S(=O)(=O)N

>  <parent_molecule_chembl_id>  (288) 
CHEMBL312635

>  <assay_type>  (288) 
B

>  <src_id>  (288) 
1

>  <ligand_efficiency>  (288) 
{u'le': u'0.61', u'bei': u'28.28', u'sei': u'6.25', u'lle': u'6.44'}

>  <standard_flag>  (288) 
True

>  <molecule_chembl_id>  (288) 
CHEMBL312635

>  <target_organism>  (288) 
Homo sapiens

>  <standard_units>  (288) 
nM

>  <record_id>  (288) 
149027

>  <document_chembl_id>  (288) 
CHEMBL1124628

>  <bao_format>  (288) 
BAO_0000357

>  <data_validity_description>  (288) 
None

>  <activity_id>  (288) 
1280372

>  <standard_type>  (288) 
IC50

>  <target_chembl_id>  (288) 
CHEMBL205

>  <data_validity_comment>  (288) 
None

>  <published_value>  (288) 
3.2E-9

>  <document_year>  (288) 
1989

>  <target_pref_name>  (288) 
Carbonic anhydrase II

>  <assay_chembl_id>  (288) 
CHEMBL656574

>  <standard_relation>  (288) 
=

>  <assay_description>  (288) 
In vitro inhibition of human Carbonic Anhydrase II

>  <published_relation>  (288) 
=

>  <standard_value>  (288) 
3.2

>  <qudt_units>  (288) 
http://www.openphacts.org/units/Nanomolar

>  <target_tax_id>  (288) 
9606

>  <bao_label>  (288) 
single protein format

>  <published_units>  (288) 
M

>  <pchembl_value>  (288) 
8.5

>  <published_type>  (288) 
I50

>  <activity_comment>  (288) 
None

$$$$

     RDKit          

 18 19  0  0  0  0  0  0  0  0999 V2000
    0.0000    0.0000    0.0000 C   0  0  0  0  0  0  0  0  0  0  0  0
    0.0000    0.0000    0.0000 C   0  0  0  0  0  0  0  0  0  0  0  0
    0.0000    0.0000    0.0000 N   0  0  0  0  0  0  0  0  0  0  0  0
    0.0000    0.0000    0.0000 C   0  0  0  0  0  0  0  0  0  0  0  0
    0.0000    0.0000    0.0000 C   0  0  0  0  0  0  0  0  0  0  0  0
    0.0000    0.0000    0.0000 C   0  0  0  0  0  0  0  0  0  0  0  0
    0.0000    0.0000    0.0000 S   0  0  0  0  0  0  0  0  0  0  0  0
    0.0000    0.0000    0.0000 O   0  0  0  0  0  0  0  0  0  0  0  0
    0.0000    0.0000    0.0000 O   0  0  0  0  0  0  0  0  0  0  0  0
    0.0000    0.0000    0.0000 C   0  0  0  0  0  0  0  0  0  0  0  0
    0.0000    0.0000    0.0000 S   0  0  0  0  0  0  0  0  0  0  0  0
    0.0000    0.0000    0.0000 C   0  0  0  0  0  0  0  0  0  0  0  0
    0.0000    0.0000    0.0000 C   0  0  0  0  0  0  0  0  0  0  0  0
    0.0000    0.0000    0.0000 C   0  0  0  0  0  0  0  0  0  0  0  0
    0.0000    0.0000    0.0000 S   0  0  0  0  0  0  0  0  0  0  0  0
    0.0000    0.0000    0.0000 O   0  0  0  0  0  0  0  0  0  0  0  0
    0.0000    0.0000    0.0000 O   0  0  0  0  0  0  0  0  0  0  0  0
    0.0000    0.0000    0.0000 N   0  0  0  0  0  0  0  0  0  0  0  0
  1  2  1  0
  2  3  1  0
  3  4  1  0
  4  5  1  0
  5  6  1  0
  6  7  1  0
  7  8  2  0
  7  9  2  0
  7 10  1  0
 10 11  1  0
 11 12  1  0
 12 13  2  0
 13 14  1  0
 12 15  1  0
 15 16  2  0
 15 17  2  0
 15 18  1  0
 14  4  1  0
 14 10  2  0
M  END
>  <pIC50>  (289) 
7.92

>  <ChEMBL_ID>  (289) 
CHEMBL2092885

>  <document_journal>  (289) 
J. Med. Chem.

>  <bao_endpoint>  (289) 
BAO_0000190

>  <potential_duplicate>  (289) 
False

>  <uo_units>  (289) 
UO_0000065

>  <canonical_smiles>  (289) 
Cl.CCN[C@@H]1CCS(=O)(=O)c2sc(cc12)S(=O)(=O)N

>  <parent_molecule_chembl_id>  (289) 
CHEMBL2109976

>  <assay_type>  (289) 
B

>  <src_id>  (289) 
1

>  <ligand_efficiency>  (289) 
{u'le': u'0.58', u'bei': u'24.76', u'sei': u'5.08', u'lle': u'7.92'}

>  <standard_flag>  (289) 
True

>  <molecule_chembl_id>  (289) 
CHEMBL2092885

>  <target_organism>  (289) 
Homo sapiens

>  <standard_units>  (289) 
nM

>  <record_id>  (289) 
150701

>  <document_chembl_id>  (289) 
CHEMBL1124372

>  <bao_format>  (289) 
BAO_0000357

>  <data_validity_description>  (289) 
None

>  <activity_id>  (289) 
1280453

>  <standard_type>  (289) 
IC50

>  <target_chembl_id>  (289) 
CHEMBL205

>  <data_validity_comment>  (289) 
None

>  <published_value>  (289) 
20.6

>  <document_year>  (289) 
1989

>  <target_pref_name>  (289) 
Carbonic anhydrase II

>  <assay_chembl_id>  (289) 
CHEMBL656566

>  <standard_relation>  (289) 
=

>  <assay_description>  (289) 
50% inhibitory concentration against human carbonic anhydrase II (HCA II) after pre-incubation at 3 degree C

>  <published_relation>  (289) 
=

>  <standard_value>  (289) 
20.6

>  <qudt_units>  (289) 
http://www.openphacts.org/units/Nanomolar

>  <target_tax_id>  (289) 
9606

>  <bao_label>  (289) 
single protein format

>  <published_units>  (289) 
nM

>  <pchembl_value>  (289) 
7.69

>  <published_type>  (289) 
I50

>  <activity_comment>  (289) 
None

$$$$

     RDKit          

 19 20  0  0  0  0  0  0  0  0999 V2000
    0.0000    0.0000    0.0000 C   0  0  0  0  0  0  0  0  0  0  0  0
    0.0000    0.0000    0.0000 C   0  0  0  0  0  0  0  0  0  0  0  0
    0.0000    0.0000    0.0000 C   0  0  0  0  0  0  0  0  0  0  0  0
    0.0000    0.0000    0.0000 N   0  0  0  0  0  0  0  0  0  0  0  0
    0.0000    0.0000    0.0000 C   0  0  0  0  0  0  0  0  0  0  0  0
    0.0000    0.0000    0.0000 C   0  0  0  0  0  0  0  0  0  0  0  0
    0.0000    0.0000    0.0000 C   0  0  0  0  0  0  0  0  0  0  0  0
    0.0000    0.0000    0.0000 S   0  0  0  0  0  0  0  0  0  0  0  0
    0.0000    0.0000    0.0000 O   0  0  0  0  0  0  0  0  0  0  0  0
    0.0000    0.0000    0.0000 O   0  0  0  0  0  0  0  0  0  0  0  0
    0.0000    0.0000    0.0000 C   0  0  0  0  0  0  0  0  0  0  0  0
    0.0000    0.0000    0.0000 S   0  0  0  0  0  0  0  0  0  0  0  0
    0.0000    0.0000    0.0000 C   0  0  0  0  0  0  0  0  0  0  0  0
    0.0000    0.0000    0.0000 C   0  0  0  0  0  0  0  0  0  0  0  0
    0.0000    0.0000    0.0000 C   0  0  0  0  0  0  0  0  0  0  0  0
    0.0000    0.0000    0.0000 S   0  0  0  0  0  0  0  0  0  0  0  0
    0.0000    0.0000    0.0000 O   0  0  0  0  0  0  0  0  0  0  0  0
    0.0000    0.0000    0.0000 O   0  0  0  0  0  0  0  0  0  0  0  0
    0.0000    0.0000    0.0000 N   0  0  0  0  0  0  0  0  0  0  0  0
  1  2  1  0
  2  3  1  0
  3  4  1  0
  4  5  1  0
  5  6  1  0
  6  7  1  0
  7  8  1  0
  8  9  2  0
  8 10  2  0
  8 11  1  0
 11 12  1  0
 12 13  1  0
 13 14  2  0
 14 15  1  0
 13 16  1  0
 16 17  2  0
 16 18  2  0
 16 19  1  0
 15  5  1  0
 15 11  2  0
M  END
>  <pIC50>  (290) 
8.43

>  <ChEMBL_ID>  (290) 
CHEMBL543604

>  <document_journal>  (290) 
J. Med. Chem.

>  <bao_endpoint>  (290) 
BAO_0000190

>  <potential_duplicate>  (290) 
False

>  <uo_units>  (290) 
UO_0000065

>  <canonical_smiles>  (290) 
Cl.CCCNC1CCS(=O)(=O)c2sc(cc12)S(=O)(=O)N

>  <parent_molecule_chembl_id>  (290) 
CHEMBL1192380

>  <assay_type>  (290) 
B

>  <src_id>  (290) 
1

>  <ligand_efficiency>  (290) 
{u'le': u'0.58', u'bei': u'24.77', u'sei': u'5.31', u'lle': u'7.75'}

>  <standard_flag>  (290) 
True

>  <molecule_chembl_id>  (290) 
CHEMBL543604

>  <target_organism>  (290) 
Homo sapiens

>  <standard_units>  (290) 
nM

>  <record_id>  (290) 
150708

>  <document_chembl_id>  (290) 
CHEMBL1124372

>  <bao_format>  (290) 
BAO_0000357

>  <data_validity_description>  (290) 
None

>  <activity_id>  (290) 
1281699

>  <standard_type>  (290) 
IC50

>  <target_chembl_id>  (290) 
CHEMBL205

>  <data_validity_comment>  (290) 
None

>  <published_value>  (290) 
9.2

>  <document_year>  (290) 
1989

>  <target_pref_name>  (290) 
Carbonic anhydrase II

>  <assay_chembl_id>  (290) 
CHEMBL656566

>  <standard_relation>  (290) 
=

>  <assay_description>  (290) 
50% inhibitory concentration against human carbonic anhydrase II (HCA II) after pre-incubation at 3 degree C

>  <published_relation>  (290) 
=

>  <standard_value>  (290) 
9.2

>  <qudt_units>  (290) 
http://www.openphacts.org/units/Nanomolar

>  <target_tax_id>  (290) 
9606

>  <bao_label>  (290) 
single protein format

>  <published_units>  (290) 
nM

>  <pchembl_value>  (290) 
8.04

>  <published_type>  (290) 
I50

>  <activity_comment>  (290) 
None

$$$$

     RDKit          

 22 24  0  0  0  0  0  0  0  0999 V2000
    0.0000    0.0000    0.0000 N   0  0  0  0  0  0  0  0  0  0  0  0
    0.0000    0.0000    0.0000 S   0  0  0  0  0  0  0  0  0  0  0  0
    0.0000    0.0000    0.0000 O   0  0  0  0  0  0  0  0  0  0  0  0
    0.0000    0.0000    0.0000 O   0  0  0  0  0  0  0  0  0  0  0  0
    0.0000    0.0000    0.0000 C   0  0  0  0  0  0  0  0  0  0  0  0
    0.0000    0.0000    0.0000 N   0  0  0  0  0  0  0  0  0  0  0  0
    0.0000    0.0000    0.0000 C   0  0  0  0  0  0  0  0  0  0  0  0
    0.0000    0.0000    0.0000 C   0  0  0  0  0  0  0  0  0  0  0  0
    0.0000    0.0000    0.0000 C   0  0  0  0  0  0  0  0  0  0  0  0
    0.0000    0.0000    0.0000 C   0  0  0  0  0  0  0  0  0  0  0  0
    0.0000    0.0000    0.0000 O   0  0  0  0  0  0  0  0  0  0  0  0
    0.0000    0.0000    0.0000 C   0  0  0  0  0  0  0  0  0  0  0  0
    0.0000    0.0000    0.0000 O   0  0  0  0  0  0  0  0  0  0  0  0
    0.0000    0.0000    0.0000 C   0  0  0  0  0  0  0  0  0  0  0  0
    0.0000    0.0000    0.0000 C   0  0  0  0  0  0  0  0  0  0  0  0
    0.0000    0.0000    0.0000 C   0  0  0  0  0  0  0  0  0  0  0  0
    0.0000    0.0000    0.0000 C   0  0  0  0  0  0  0  0  0  0  0  0
    0.0000    0.0000    0.0000 C   0  0  0  0  0  0  0  0  0  0  0  0
    0.0000    0.0000    0.0000 C   0  0  0  0  0  0  0  0  0  0  0  0
    0.0000    0.0000    0.0000 C   0  0  0  0  0  0  0  0  0  0  0  0
    0.0000    0.0000    0.0000 C   0  0  0  0  0  0  0  0  0  0  0  0
    0.0000    0.0000    0.0000 S   0  0  0  0  0  0  0  0  0  0  0  0
  1  2  1  0
  2  3  2  0
  2  4  2  0
  2  5  1  0
  5  6  2  0
  6  7  1  0
  7  8  2  0
  8  9  1  0
  9 10  2  0
 10 11  1  0
 11 12  1  0
 12 13  2  0
 12 14  1  0
 14 15  1  0
 15 16  1  0
 16 17  1  0
 17 18  1  0
 18 19  1  0
 10 20  1  0
 20 21  2  0
 21 22  1  0
 22  5  1  0
 21  7  1  0
 19 15  1  0
M  END
>  <pIC50>  (291) 
8.22

>  <ChEMBL_ID>  (291) 
CHEMBL311089

>  <document_journal>  (291) 
J. Med. Chem.

>  <bao_endpoint>  (291) 
BAO_0000190

>  <potential_duplicate>  (291) 
False

>  <uo_units>  (291) 
UO_0000065

>  <canonical_smiles>  (291) 
NS(=O)(=O)c1nc2ccc(OC(=O)CC3CCCC3)cc2s1

>  <parent_molecule_chembl_id>  (291) 
CHEMBL311089

>  <assay_type>  (291) 
B

>  <src_id>  (291) 
1

>  <ligand_efficiency>  (291) 
{u'le': u'0.51', u'bei': u'24.15', u'sei': u'6.05', u'lle': u'5.38'}

>  <standard_flag>  (291) 
True

>  <molecule_chembl_id>  (291) 
CHEMBL311089

>  <target_organism>  (291) 
Homo sapiens

>  <standard_units>  (291) 
nM

>  <record_id>  (291) 
149030

>  <document_chembl_id>  (291) 
CHEMBL1124628

>  <bao_format>  (291) 
BAO_0000357

>  <data_validity_description>  (291) 
None

>  <activity_id>  (291) 
1282830

>  <standard_type>  (291) 
IC50

>  <target_chembl_id>  (291) 
CHEMBL205

>  <data_validity_comment>  (291) 
None

>  <published_value>  (291) 
6E-9

>  <document_year>  (291) 
1989

>  <target_pref_name>  (291) 
Carbonic anhydrase II

>  <assay_chembl_id>  (291) 
CHEMBL656575

>  <standard_relation>  (291) 
=

>  <assay_description>  (291) 
In vitro inhibitory activity against human Carbonic anhydrase II

>  <published_relation>  (291) 
=

>  <standard_value>  (291) 
6

>  <qudt_units>  (291) 
http://www.openphacts.org/units/Nanomolar

>  <target_tax_id>  (291) 
9606

>  <bao_label>  (291) 
single protein format

>  <published_units>  (291) 
M

>  <pchembl_value>  (291) 
8.22

>  <published_type>  (291) 
I50

>  <activity_comment>  (291) 
None

$$$$

     RDKit          

 16 17  0  0  0  0  0  0  0  0999 V2000
    0.0000    0.0000    0.0000 N   0  0  0  0  0  0  0  0  0  0  0  0
    0.0000    0.0000    0.0000 C   0  0  0  0  0  0  0  0  0  0  0  0
    0.0000    0.0000    0.0000 C   0  0  0  0  0  0  0  0  0  0  0  0
    0.0000    0.0000    0.0000 C   0  0  0  0  0  0  0  0  0  0  0  0
    0.0000    0.0000    0.0000 S   0  0  0  0  0  0  0  0  0  0  0  0
    0.0000    0.0000    0.0000 O   0  0  0  0  0  0  0  0  0  0  0  0
    0.0000    0.0000    0.0000 O   0  0  0  0  0  0  0  0  0  0  0  0
    0.0000    0.0000    0.0000 C   0  0  0  0  0  0  0  0  0  0  0  0
    0.0000    0.0000    0.0000 S   0  0  0  0  0  0  0  0  0  0  0  0
    0.0000    0.0000    0.0000 C   0  0  0  0  0  0  0  0  0  0  0  0
    0.0000    0.0000    0.0000 C   0  0  0  0  0  0  0  0  0  0  0  0
    0.0000    0.0000    0.0000 C   0  0  0  0  0  0  0  0  0  0  0  0
    0.0000    0.0000    0.0000 S   0  0  0  0  0  0  0  0  0  0  0  0
    0.0000    0.0000    0.0000 O   0  0  0  0  0  0  0  0  0  0  0  0
    0.0000    0.0000    0.0000 O   0  0  0  0  0  0  0  0  0  0  0  0
    0.0000    0.0000    0.0000 N   0  0  0  0  0  0  0  0  0  0  0  0
  1  2  1  0
  2  3  1  0
  3  4  1  0
  4  5  1  0
  5  6  2  0
  5  7  2  0
  5  8  1  0
  8  9  1  0
  9 10  1  0
 10 11  2  0
 11 12  1  0
 10 13  1  0
 13 14  2  0
 13 15  2  0
 13 16  1  0
 12  2  1  0
 12  8  2  0
M  END
>  <pIC50>  (292) 
8.27

>  <ChEMBL_ID>  (292) 
CHEMBL554091

>  <document_journal>  (292) 
J. Med. Chem.

>  <bao_endpoint>  (292) 
BAO_0000190

>  <potential_duplicate>  (292) 
False

>  <uo_units>  (292) 
UO_0000065

>  <canonical_smiles>  (292) 
Cl.NC1CCS(=O)(=O)c2sc(cc12)S(=O)(=O)N

>  <parent_molecule_chembl_id>  (292) 
CHEMBL1195229

>  <assay_type>  (292) 
B

>  <src_id>  (292) 
1

>  <ligand_efficiency>  (292) 
{u'le': u'0.69', u'bei': u'28.46', u'sei': u'4.86', u'lle': u'9.05'}

>  <standard_flag>  (292) 
True

>  <molecule_chembl_id>  (292) 
CHEMBL554091

>  <target_organism>  (292) 
Homo sapiens

>  <standard_units>  (292) 
nM

>  <record_id>  (292) 
150698

>  <document_chembl_id>  (292) 
CHEMBL1124372

>  <bao_format>  (292) 
BAO_0000357

>  <data_validity_description>  (292) 
None

>  <activity_id>  (292) 
1284184

>  <standard_type>  (292) 
IC50

>  <target_chembl_id>  (292) 
CHEMBL205

>  <data_validity_comment>  (292) 
None

>  <published_value>  (292) 
9.2

>  <document_year>  (292) 
1989

>  <target_pref_name>  (292) 
Carbonic anhydrase II

>  <assay_chembl_id>  (292) 
CHEMBL656566

>  <standard_relation>  (292) 
=

>  <assay_description>  (292) 
50% inhibitory concentration against human carbonic anhydrase II (HCA II) after pre-incubation at 3 degree C

>  <published_relation>  (292) 
=

>  <standard_value>  (292) 
9.2

>  <qudt_units>  (292) 
http://www.openphacts.org/units/Nanomolar

>  <target_tax_id>  (292) 
9606

>  <bao_label>  (292) 
single protein format

>  <published_units>  (292) 
nM

>  <pchembl_value>  (292) 
8.04

>  <published_type>  (292) 
I50

>  <activity_comment>  (292) 
None

$$$$

     RDKit          

 26 28  0  0  0  0  0  0  0  0999 V2000
    0.0000    0.0000    0.0000 C   0  0  0  0  0  0  0  0  0  0  0  0
    0.0000    0.0000    0.0000 N   0  0  0  0  0  0  0  0  0  0  0  0
    0.0000    0.0000    0.0000 C   0  0  0  0  0  0  0  0  0  0  0  0
    0.0000    0.0000    0.0000 C   0  0  0  0  0  0  0  0  0  0  0  0
    0.0000    0.0000    0.0000 C   0  0  0  0  0  0  0  0  0  0  0  0
    0.0000    0.0000    0.0000 C   0  0  0  0  0  0  0  0  0  0  0  0
    0.0000    0.0000    0.0000 C   0  0  0  0  0  0  0  0  0  0  0  0
    0.0000    0.0000    0.0000 C   0  0  0  0  0  0  0  0  0  0  0  0
    0.0000    0.0000    0.0000 C   0  0  0  0  0  0  0  0  0  0  0  0
    0.0000    0.0000    0.0000 C   0  0  0  0  0  0  0  0  0  0  0  0
    0.0000    0.0000    0.0000 C   0  0  0  0  0  0  0  0  0  0  0  0
    0.0000    0.0000    0.0000 O   0  0  0  0  0  0  0  0  0  0  0  0
    0.0000    0.0000    0.0000 O   0  0  0  0  0  0  0  0  0  0  0  0
    0.0000    0.0000    0.0000 C   0  0  0  0  0  0  0  0  0  0  0  0
    0.0000    0.0000    0.0000 C   0  0  0  0  0  0  0  0  0  0  0  0
    0.0000    0.0000    0.0000 C   0  0  0  0  0  0  0  0  0  0  0  0
    0.0000    0.0000    0.0000 C   0  0  0  0  0  0  0  0  0  0  0  0
    0.0000    0.0000    0.0000 N   0  0  0  0  0  0  0  0  0  0  0  0
    0.0000    0.0000    0.0000 C   0  0  0  0  0  0  0  0  0  0  0  0
    0.0000    0.0000    0.0000 S   0  0  0  0  0  0  0  0  0  0  0  0
    0.0000    0.0000    0.0000 C   0  0  0  0  0  0  0  0  0  0  0  0
    0.0000    0.0000    0.0000 C   0  0  0  0  0  0  0  0  0  0  0  0
    0.0000    0.0000    0.0000 S   0  0  0  0  0  0  0  0  0  0  0  0
    0.0000    0.0000    0.0000 O   0  0  0  0  0  0  0  0  0  0  0  0
    0.0000    0.0000    0.0000 O   0  0  0  0  0  0  0  0  0  0  0  0
    0.0000    0.0000    0.0000 N   0  0  0  0  0  0  0  0  0  0  0  0
  1  2  1  0
  2  3  1  0
  2  4  1  0
  4  5  1  0
  5  6  2  0
  6  7  1  0
  7  8  2  0
  8  9  1  0
  9 10  2  0
  8 11  1  0
 11 12  2  0
 11 13  1  0
 13 14  1  0
 14 15  2  0
 15 16  1  0
 16 17  2  0
 17 18  1  0
 18 19  2  0
 19 20  1  0
 20 21  1  0
 21 22  2  0
 19 23  1  0
 23 24  2  0
 23 25  2  0
 23 26  1  0
 10  5  1  0
 22 14  1  0
 21 17  1  0
M  END
>  <pIC50>  (293) 
8.4

>  <ChEMBL_ID>  (293) 
CHEMBL79340

>  <document_journal>  (293) 
J. Med. Chem.

>  <bao_endpoint>  (293) 
BAO_0000190

>  <potential_duplicate>  (293) 
False

>  <uo_units>  (293) 
UO_0000065

>  <canonical_smiles>  (293) 
CN(C)Cc1ccc(cc1)C(=O)Oc2ccc3nc(sc3c2)S(=O)(=O)N

>  <parent_molecule_chembl_id>  (293) 
CHEMBL79340

>  <assay_type>  (293) 
B

>  <src_id>  (293) 
1

>  <ligand_efficiency>  (293) 
{u'le': u'0.44', u'bei': u'21.45', u'sei': u'6.03', u'lle': u'5.73'}

>  <standard_flag>  (293) 
True

>  <molecule_chembl_id>  (293) 
CHEMBL79340

>  <target_organism>  (293) 
Homo sapiens

>  <standard_units>  (293) 
nM

>  <record_id>  (293) 
149033

>  <document_chembl_id>  (293) 
CHEMBL1124628

>  <bao_format>  (293) 
BAO_0000357

>  <data_validity_description>  (293) 
None

>  <activity_id>  (293) 
1284220

>  <standard_type>  (293) 
IC50

>  <target_chembl_id>  (293) 
CHEMBL205

>  <data_validity_comment>  (293) 
None

>  <published_value>  (293) 
4E-9

>  <document_year>  (293) 
1989

>  <target_pref_name>  (293) 
Carbonic anhydrase II

>  <assay_chembl_id>  (293) 
CHEMBL656575

>  <standard_relation>  (293) 
=

>  <assay_description>  (293) 
In vitro inhibitory activity against human Carbonic anhydrase II

>  <published_relation>  (293) 
=

>  <standard_value>  (293) 
4

>  <qudt_units>  (293) 
http://www.openphacts.org/units/Nanomolar

>  <target_tax_id>  (293) 
9606

>  <bao_label>  (293) 
single protein format

>  <published_units>  (293) 
M

>  <pchembl_value>  (293) 
8.4

>  <published_type>  (293) 
I50

>  <activity_comment>  (293) 
None

$$$$

     RDKit          

 21 22  0  0  0  0  0  0  0  0999 V2000
    0.0000    0.0000    0.0000 C   0  0  0  0  0  0  0  0  0  0  0  0
    0.0000    0.0000    0.0000 C   0  0  0  0  0  0  0  0  0  0  0  0
    0.0000    0.0000    0.0000 C   0  0  0  0  0  0  0  0  0  0  0  0
    0.0000    0.0000    0.0000 C   0  0  0  0  0  0  0  0  0  0  0  0
    0.0000    0.0000    0.0000 C   0  0  0  0  0  0  0  0  0  0  0  0
    0.0000    0.0000    0.0000 O   0  0  0  0  0  0  0  0  0  0  0  0
    0.0000    0.0000    0.0000 O   0  0  0  0  0  0  0  0  0  0  0  0
    0.0000    0.0000    0.0000 C   0  0  0  0  0  0  0  0  0  0  0  0
    0.0000    0.0000    0.0000 C   0  0  0  0  0  0  0  0  0  0  0  0
    0.0000    0.0000    0.0000 C   0  0  0  0  0  0  0  0  0  0  0  0
    0.0000    0.0000    0.0000 C   0  0  0  0  0  0  0  0  0  0  0  0
    0.0000    0.0000    0.0000 N   0  0  0  0  0  0  0  0  0  0  0  0
    0.0000    0.0000    0.0000 C   0  0  0  0  0  0  0  0  0  0  0  0
    0.0000    0.0000    0.0000 S   0  0  0  0  0  0  0  0  0  0  0  0
    0.0000    0.0000    0.0000 C   0  0  0  0  0  0  0  0  0  0  0  0
    0.0000    0.0000    0.0000 C   0  0  0  0  0  0  0  0  0  0  0  0
    0.0000    0.0000    0.0000 N   0  0  0  0  0  0  0  0  0  0  0  0
    0.0000    0.0000    0.0000 S   0  0  0  0  0  0  0  0  0  0  0  0
    0.0000    0.0000    0.0000 O   0  0  0  0  0  0  0  0  0  0  0  0
    0.0000    0.0000    0.0000 O   0  0  0  0  0  0  0  0  0  0  0  0
    0.0000    0.0000    0.0000 N   0  0  0  0  0  0  0  0  0  0  0  0
  1  2  1  0
  2  3  1  0
  2  4  1  0
  2  5  1  0
  5  6  2  0
  5  7  1  0
  7  8  1  0
  8  9  2  0
  9 10  1  0
 10 11  2  0
 11 12  1  0
 12 13  2  0
 13 14  1  0
 14 15  1  0
 15 16  2  0
 16 17  1  0
 13 18  1  0
 18 19  2  0
 18 20  2  0
 18 21  1  0
 16  8  1  0
 15 11  1  0
M  END
>  <pIC50>  (294) 
7.6

>  <ChEMBL_ID>  (294) 
CHEMBL79608

>  <document_journal>  (294) 
J. Med. Chem.

>  <bao_endpoint>  (294) 
BAO_0000190

>  <potential_duplicate>  (294) 
False

>  <uo_units>  (294) 
UO_0000065

>  <canonical_smiles>  (294) 
CC(C)(C)C(=O)Oc1ccc2nc(sc2c1N)S(=O)(=O)N

>  <parent_molecule_chembl_id>  (294) 
CHEMBL79608

>  <assay_type>  (294) 
B

>  <src_id>  (294) 
1

>  <ligand_efficiency>  (294) 
{u'le': u'0.49', u'bei': u'23.08', u'sei': u'4.69', u'lle': u'5.87'}

>  <standard_flag>  (294) 
True

>  <molecule_chembl_id>  (294) 
CHEMBL79608

>  <target_organism>  (294) 
Homo sapiens

>  <standard_units>  (294) 
nM

>  <record_id>  (294) 
149028

>  <document_chembl_id>  (294) 
CHEMBL1124628

>  <bao_format>  (294) 
BAO_0000357

>  <data_validity_description>  (294) 
None

>  <activity_id>  (294) 
1286590

>  <standard_type>  (294) 
IC50

>  <target_chembl_id>  (294) 
CHEMBL205

>  <data_validity_comment>  (294) 
None

>  <published_value>  (294) 
2.5E-8

>  <document_year>  (294) 
1989

>  <target_pref_name>  (294) 
Carbonic anhydrase II

>  <assay_chembl_id>  (294) 
CHEMBL656575

>  <standard_relation>  (294) 
=

>  <assay_description>  (294) 
In vitro inhibitory activity against human Carbonic anhydrase II

>  <published_relation>  (294) 
=

>  <standard_value>  (294) 
25

>  <qudt_units>  (294) 
http://www.openphacts.org/units/Nanomolar

>  <target_tax_id>  (294) 
9606

>  <bao_label>  (294) 
single protein format

>  <published_units>  (294) 
M

>  <pchembl_value>  (294) 
7.6

>  <published_type>  (294) 
I50

>  <activity_comment>  (294) 
None

$$$$

     RDKit          

 24 26  0  0  0  0  0  0  0  0999 V2000
    0.0000    0.0000    0.0000 N   0  0  0  0  0  0  0  0  0  0  0  0
    0.0000    0.0000    0.0000 S   0  0  0  0  0  0  0  0  0  0  0  0
    0.0000    0.0000    0.0000 O   0  0  0  0  0  0  0  0  0  0  0  0
    0.0000    0.0000    0.0000 O   0  0  0  0  0  0  0  0  0  0  0  0
    0.0000    0.0000    0.0000 C   0  0  0  0  0  0  0  0  0  0  0  0
    0.0000    0.0000    0.0000 N   0  0  0  0  0  0  0  0  0  0  0  0
    0.0000    0.0000    0.0000 C   0  0  0  0  0  0  0  0  0  0  0  0
    0.0000    0.0000    0.0000 C   0  0  0  0  0  0  0  0  0  0  0  0
    0.0000    0.0000    0.0000 C   0  0  0  0  0  0  0  0  0  0  0  0
    0.0000    0.0000    0.0000 C   0  0  0  0  0  0  0  0  0  0  0  0
    0.0000    0.0000    0.0000 O   0  0  0  0  0  0  0  0  0  0  0  0
    0.0000    0.0000    0.0000 C   0  0  0  0  0  0  0  0  0  0  0  0
    0.0000    0.0000    0.0000 O   0  0  0  0  0  0  0  0  0  0  0  0
    0.0000    0.0000    0.0000 C   0  0  0  0  0  0  0  0  0  0  0  0
    0.0000    0.0000    0.0000 C   0  0  0  0  0  0  0  0  0  0  0  0
    0.0000    0.0000    0.0000 C   0  0  0  0  0  0  0  0  0  0  0  0
    0.0000    0.0000    0.0000 C   0  0  0  0  0  0  0  0  0  0  0  0
    0.0000    0.0000    0.0000 C   0  0  0  0  0  0  0  0  0  0  0  0
    0.0000    0.0000    0.0000 Cl  0  0  0  0  0  0  0  0  0  0  0  0
    0.0000    0.0000    0.0000 C   0  0  0  0  0  0  0  0  0  0  0  0
    0.0000    0.0000    0.0000 C   0  0  0  0  0  0  0  0  0  0  0  0
    0.0000    0.0000    0.0000 C   0  0  0  0  0  0  0  0  0  0  0  0
    0.0000    0.0000    0.0000 C   0  0  0  0  0  0  0  0  0  0  0  0
    0.0000    0.0000    0.0000 S   0  0  0  0  0  0  0  0  0  0  0  0
  1  2  1  0
  2  3  2  0
  2  4  2  0
  2  5  1  0
  5  6  2  0
  6  7  1  0
  7  8  2  0
  8  9  1  0
  9 10  2  0
 10 11  1  0
 11 12  1  0
 12 13  2  0
 12 14  1  0
 14 15  1  0
 15 16  2  0
 16 17  1  0
 17 18  2  0
 18 19  1  0
 18 20  1  0
 20 21  2  0
 10 22  1  0
 22 23  2  0
 23 24  1  0
 24  5  1  0
 23  7  1  0
 21 15  1  0
M  END
>  <pIC50>  (295) 
8.0

>  <ChEMBL_ID>  (295) 
CHEMBL311440

>  <document_journal>  (295) 
J. Med. Chem.

>  <bao_endpoint>  (295) 
BAO_0000190

>  <potential_duplicate>  (295) 
False

>  <uo_units>  (295) 
UO_0000065

>  <canonical_smiles>  (295) 
NS(=O)(=O)c1nc2ccc(OC(=O)Cc3ccc(Cl)cc3)cc2s1

>  <parent_molecule_chembl_id>  (295) 
CHEMBL311440

>  <assay_type>  (295) 
B

>  <src_id>  (295) 
1

>  <ligand_efficiency>  (295) 
{u'le': u'0.46', u'bei': u'20.9', u'sei': u'5.88', u'lle': u'4.71'}

>  <standard_flag>  (295) 
True

>  <molecule_chembl_id>  (295) 
CHEMBL311440

>  <target_organism>  (295) 
Homo sapiens

>  <standard_units>  (295) 
nM

>  <record_id>  (295) 
149035

>  <document_chembl_id>  (295) 
CHEMBL1124628

>  <bao_format>  (295) 
BAO_0000357

>  <data_validity_description>  (295) 
None

>  <activity_id>  (295) 
1286591

>  <standard_type>  (295) 
IC50

>  <target_chembl_id>  (295) 
CHEMBL205

>  <data_validity_comment>  (295) 
None

>  <published_value>  (295) 
1E-8

>  <document_year>  (295) 
1989

>  <target_pref_name>  (295) 
Carbonic anhydrase II

>  <assay_chembl_id>  (295) 
CHEMBL656575

>  <standard_relation>  (295) 
=

>  <assay_description>  (295) 
In vitro inhibitory activity against human Carbonic anhydrase II

>  <published_relation>  (295) 
=

>  <standard_value>  (295) 
10

>  <qudt_units>  (295) 
http://www.openphacts.org/units/Nanomolar

>  <target_tax_id>  (295) 
9606

>  <bao_label>  (295) 
single protein format

>  <published_units>  (295) 
M

>  <pchembl_value>  (295) 
8

>  <published_type>  (295) 
I50

>  <activity_comment>  (295) 
None

$$$$

     RDKit          

 25 27  0  0  0  0  0  0  0  0999 V2000
    0.0000    0.0000    0.0000 C   0  0  0  0  0  0  0  0  0  0  0  0
    0.0000    0.0000    0.0000 N   0  0  0  0  0  0  0  0  0  0  0  0
    0.0000    0.0000    0.0000 C   0  0  0  0  0  0  0  0  0  0  0  0
    0.0000    0.0000    0.0000 C   0  0  0  0  0  0  0  0  0  0  0  0
    0.0000    0.0000    0.0000 C   0  0  0  0  0  0  0  0  0  0  0  0
    0.0000    0.0000    0.0000 C   0  0  0  0  0  0  0  0  0  0  0  0
    0.0000    0.0000    0.0000 C   0  0  0  0  0  0  0  0  0  0  0  0
    0.0000    0.0000    0.0000 C   0  0  0  0  0  0  0  0  0  0  0  0
    0.0000    0.0000    0.0000 C   0  0  0  0  0  0  0  0  0  0  0  0
    0.0000    0.0000    0.0000 C   0  0  0  0  0  0  0  0  0  0  0  0
    0.0000    0.0000    0.0000 O   0  0  0  0  0  0  0  0  0  0  0  0
    0.0000    0.0000    0.0000 O   0  0  0  0  0  0  0  0  0  0  0  0
    0.0000    0.0000    0.0000 C   0  0  0  0  0  0  0  0  0  0  0  0
    0.0000    0.0000    0.0000 C   0  0  0  0  0  0  0  0  0  0  0  0
    0.0000    0.0000    0.0000 C   0  0  0  0  0  0  0  0  0  0  0  0
    0.0000    0.0000    0.0000 C   0  0  0  0  0  0  0  0  0  0  0  0
    0.0000    0.0000    0.0000 N   0  0  0  0  0  0  0  0  0  0  0  0
    0.0000    0.0000    0.0000 C   0  0  0  0  0  0  0  0  0  0  0  0
    0.0000    0.0000    0.0000 S   0  0  0  0  0  0  0  0  0  0  0  0
    0.0000    0.0000    0.0000 C   0  0  0  0  0  0  0  0  0  0  0  0
    0.0000    0.0000    0.0000 C   0  0  0  0  0  0  0  0  0  0  0  0
    0.0000    0.0000    0.0000 S   0  0  0  0  0  0  0  0  0  0  0  0
    0.0000    0.0000    0.0000 O   0  0  0  0  0  0  0  0  0  0  0  0
    0.0000    0.0000    0.0000 O   0  0  0  0  0  0  0  0  0  0  0  0
    0.0000    0.0000    0.0000 N   0  0  0  0  0  0  0  0  0  0  0  0
  1  2  1  0
  2  3  1  0
  2  4  1  0
  4  5  2  0
  5  6  1  0
  6  7  2  0
  7  8  1  0
  8  9  2  0
  7 10  1  0
 10 11  2  0
 10 12  1  0
 12 13  1  0
 13 14  2  0
 14 15  1  0
 15 16  2  0
 16 17  1  0
 17 18  2  0
 18 19  1  0
 19 20  1  0
 20 21  2  0
 18 22  1  0
 22 23  2  0
 22 24  2  0
 22 25  1  0
  9  4  1  0
 21 13  1  0
 20 16  1  0
M  END
>  <pIC50>  (296) 
7.22

>  <ChEMBL_ID>  (296) 
CHEMBL80096

>  <document_journal>  (296) 
J. Med. Chem.

>  <bao_endpoint>  (296) 
BAO_0000190

>  <potential_duplicate>  (296) 
False

>  <uo_units>  (296) 
UO_0000065

>  <canonical_smiles>  (296) 
CN(C)c1ccc(cc1)C(=O)Oc2ccc3nc(sc3c2)S(=O)(=O)N

>  <parent_molecule_chembl_id>  (296) 
CHEMBL80096

>  <assay_type>  (296) 
B

>  <src_id>  (296) 
1

>  <ligand_efficiency>  (296) 
{u'le': u'0.39', u'bei': u'19.13', u'sei': u'5.19', u'lle': u'4.47'}

>  <standard_flag>  (296) 
True

>  <molecule_chembl_id>  (296) 
CHEMBL80096

>  <target_organism>  (296) 
Homo sapiens

>  <standard_units>  (296) 
nM

>  <record_id>  (296) 
149034

>  <document_chembl_id>  (296) 
CHEMBL1124628

>  <bao_format>  (296) 
BAO_0000357

>  <data_validity_description>  (296) 
None

>  <activity_id>  (296) 
1286592

>  <standard_type>  (296) 
IC50

>  <target_chembl_id>  (296) 
CHEMBL205

>  <data_validity_comment>  (296) 
None

>  <published_value>  (296) 
6E-8

>  <document_year>  (296) 
1989

>  <target_pref_name>  (296) 
Carbonic anhydrase II

>  <assay_chembl_id>  (296) 
CHEMBL656575

>  <standard_relation>  (296) 
=

>  <assay_description>  (296) 
In vitro inhibitory activity against human Carbonic anhydrase II

>  <published_relation>  (296) 
=

>  <standard_value>  (296) 
60

>  <qudt_units>  (296) 
http://www.openphacts.org/units/Nanomolar

>  <target_tax_id>  (296) 
9606

>  <bao_label>  (296) 
single protein format

>  <published_units>  (296) 
M

>  <pchembl_value>  (296) 
7.22

>  <published_type>  (296) 
I50

>  <activity_comment>  (296) 
None

$$$$

     RDKit          

 24 26  0  0  0  0  0  0  0  0999 V2000
    0.0000    0.0000    0.0000 N   0  0  0  0  0  0  0  0  0  0  0  0
    0.0000    0.0000    0.0000 S   0  0  0  0  0  0  0  0  0  0  0  0
    0.0000    0.0000    0.0000 O   0  0  0  0  0  0  0  0  0  0  0  0
    0.0000    0.0000    0.0000 O   0  0  0  0  0  0  0  0  0  0  0  0
    0.0000    0.0000    0.0000 C   0  0  0  0  0  0  0  0  0  0  0  0
    0.0000    0.0000    0.0000 N   0  0  0  0  0  0  0  0  0  0  0  0
    0.0000    0.0000    0.0000 C   0  0  0  0  0  0  0  0  0  0  0  0
    0.0000    0.0000    0.0000 C   0  0  0  0  0  0  0  0  0  0  0  0
    0.0000    0.0000    0.0000 C   0  0  0  0  0  0  0  0  0  0  0  0
    0.0000    0.0000    0.0000 C   0  0  0  0  0  0  0  0  0  0  0  0
    0.0000    0.0000    0.0000 O   0  0  0  0  0  0  0  0  0  0  0  0
    0.0000    0.0000    0.0000 C   0  0  0  0  0  0  0  0  0  0  0  0
    0.0000    0.0000    0.0000 O   0  0  0  0  0  0  0  0  0  0  0  0
    0.0000    0.0000    0.0000 C   0  0  0  0  0  0  0  0  0  0  0  0
    0.0000    0.0000    0.0000 C   0  0  0  0  0  0  0  0  0  0  0  0
    0.0000    0.0000    0.0000 C   0  0  0  0  0  0  0  0  0  0  0  0
    0.0000    0.0000    0.0000 C   0  0  0  0  0  0  0  0  0  0  0  0
    0.0000    0.0000    0.0000 C   0  0  0  0  0  0  0  0  0  0  0  0
    0.0000    0.0000    0.0000 C   0  0  0  0  0  0  0  0  0  0  0  0
    0.0000    0.0000    0.0000 C   0  0  0  0  0  0  0  0  0  0  0  0
    0.0000    0.0000    0.0000 C   0  0  0  0  0  0  0  0  0  0  0  0
    0.0000    0.0000    0.0000 C   0  0  0  0  0  0  0  0  0  0  0  0
    0.0000    0.0000    0.0000 C   0  0  0  0  0  0  0  0  0  0  0  0
    0.0000    0.0000    0.0000 S   0  0  0  0  0  0  0  0  0  0  0  0
  1  2  1  0
  2  3  2  0
  2  4  2  0
  2  5  1  0
  5  6  2  0
  6  7  1  0
  7  8  2  0
  8  9  1  0
  9 10  2  0
 10 11  1  0
 11 12  1  0
 12 13  2  0
 12 14  1  0
 14 15  2  0
 15 16  1  0
 16 17  2  0
 17 18  1  0
 18 19  2  0
 19 20  1  0
 20 21  2  0
 10 22  1  0
 22 23  2  0
 23 24  1  0
 24  5  1  0
 23  7  1  0
 21 16  1  0
M  END
>  <pIC50>  (297) 
7.82

>  <ChEMBL_ID>  (297) 
CHEMBL420961

>  <document_journal>  (297) 
J. Med. Chem.

>  <bao_endpoint>  (297) 
BAO_0000190

>  <potential_duplicate>  (297) 
False

>  <uo_units>  (297) 
UO_0000065

>  <canonical_smiles>  (297) 
NS(=O)(=O)c1nc2ccc(OC(=O)\C=C\c3ccccc3)cc2s1

>  <parent_molecule_chembl_id>  (297) 
CHEMBL420961

>  <assay_type>  (297) 
B

>  <src_id>  (297) 
1

>  <ligand_efficiency>  (297) 
{u'le': u'0.45', u'bei': u'21.71', u'sei': u'5.75', u'lle': u'4.76'}

>  <standard_flag>  (297) 
True

>  <molecule_chembl_id>  (297) 
CHEMBL420961

>  <target_organism>  (297) 
Homo sapiens

>  <standard_units>  (297) 
nM

>  <record_id>  (297) 
149032

>  <document_chembl_id>  (297) 
CHEMBL1124628

>  <bao_format>  (297) 
BAO_0000357

>  <data_validity_description>  (297) 
None

>  <activity_id>  (297) 
1287860

>  <standard_type>  (297) 
IC50

>  <target_chembl_id>  (297) 
CHEMBL205

>  <data_validity_comment>  (297) 
None

>  <published_value>  (297) 
1.5E-8

>  <document_year>  (297) 
1989

>  <target_pref_name>  (297) 
Carbonic anhydrase II

>  <assay_chembl_id>  (297) 
CHEMBL656575

>  <standard_relation>  (297) 
=

>  <assay_description>  (297) 
In vitro inhibitory activity against human Carbonic anhydrase II

>  <published_relation>  (297) 
=

>  <standard_value>  (297) 
15

>  <qudt_units>  (297) 
http://www.openphacts.org/units/Nanomolar

>  <target_tax_id>  (297) 
9606

>  <bao_label>  (297) 
single protein format

>  <published_units>  (297) 
M

>  <pchembl_value>  (297) 
7.82

>  <published_type>  (297) 
I50

>  <activity_comment>  (297) 
None

$$$$

     RDKit          

 17 18  0  0  0  0  0  0  0  0999 V2000
    0.0000    0.0000    0.0000 C   0  0  0  0  0  0  0  0  0  0  0  0
    0.0000    0.0000    0.0000 C   0  0  0  0  0  0  0  0  0  0  0  0
    0.0000    0.0000    0.0000 O   0  0  0  0  0  0  0  0  0  0  0  0
    0.0000    0.0000    0.0000 O   0  0  0  0  0  0  0  0  0  0  0  0
    0.0000    0.0000    0.0000 C   0  0  0  0  0  0  0  0  0  0  0  0
    0.0000    0.0000    0.0000 C   0  0  0  0  0  0  0  0  0  0  0  0
    0.0000    0.0000    0.0000 C   0  0  0  0  0  0  0  0  0  0  0  0
    0.0000    0.0000    0.0000 C   0  0  0  0  0  0  0  0  0  0  0  0
    0.0000    0.0000    0.0000 N   0  0  0  0  0  0  0  0  0  0  0  0
    0.0000    0.0000    0.0000 C   0  0  0  0  0  0  0  0  0  0  0  0
    0.0000    0.0000    0.0000 S   0  0  0  0  0  0  0  0  0  0  0  0
    0.0000    0.0000    0.0000 C   0  0  0  0  0  0  0  0  0  0  0  0
    0.0000    0.0000    0.0000 C   0  0  0  0  0  0  0  0  0  0  0  0
    0.0000    0.0000    0.0000 S   0  0  0  0  0  0  0  0  0  0  0  0
    0.0000    0.0000    0.0000 O   0  0  0  0  0  0  0  0  0  0  0  0
    0.0000    0.0000    0.0000 O   0  0  0  0  0  0  0  0  0  0  0  0
    0.0000    0.0000    0.0000 N   0  0  0  0  0  0  0  0  0  0  0  0
  1  2  1  0
  2  3  2  0
  2  4  1  0
  4  5  1  0
  5  6  2  0
  6  7  1  0
  7  8  2  0
  8  9  1  0
  9 10  2  0
 10 11  1  0
 11 12  1  0
 12 13  2  0
 10 14  1  0
 14 15  2  0
 14 16  2  0
 14 17  1  0
 13  5  1  0
 12  8  1  0
M  END
>  <pIC50>  (298) 
8.7

>  <ChEMBL_ID>  (298) 
CHEMBL81688

>  <document_journal>  (298) 
J. Med. Chem.

>  <bao_endpoint>  (298) 
BAO_0000190

>  <potential_duplicate>  (298) 
False

>  <uo_units>  (298) 
UO_0000065

>  <canonical_smiles>  (298) 
CC(=O)Oc1ccc2nc(sc2c1)S(=O)(=O)N

>  <parent_molecule_chembl_id>  (298) 
CHEMBL81688

>  <assay_type>  (298) 
B

>  <src_id>  (298) 
1

>  <ligand_efficiency>  (298) 
{u'le': u'0.7', u'bei': u'31.95', u'sei': u'6.4', u'lle': u'7.77'}

>  <standard_flag>  (298) 
True

>  <molecule_chembl_id>  (298) 
CHEMBL81688

>  <target_organism>  (298) 
Homo sapiens

>  <standard_units>  (298) 
nM

>  <record_id>  (298) 
149026

>  <document_chembl_id>  (298) 
CHEMBL1124628

>  <bao_format>  (298) 
BAO_0000357

>  <data_validity_description>  (298) 
None

>  <activity_id>  (298) 
1289244

>  <standard_type>  (298) 
IC50

>  <target_chembl_id>  (298) 
CHEMBL205

>  <data_validity_comment>  (298) 
None

>  <published_value>  (298) 
2E-9

>  <document_year>  (298) 
1989

>  <target_pref_name>  (298) 
Carbonic anhydrase II

>  <assay_chembl_id>  (298) 
CHEMBL656574

>  <standard_relation>  (298) 
=

>  <assay_description>  (298) 
In vitro inhibition of human Carbonic Anhydrase II

>  <published_relation>  (298) 
=

>  <standard_value>  (298) 
2

>  <qudt_units>  (298) 
http://www.openphacts.org/units/Nanomolar

>  <target_tax_id>  (298) 
9606

>  <bao_label>  (298) 
single protein format

>  <published_units>  (298) 
M

>  <pchembl_value>  (298) 
8.7

>  <published_type>  (298) 
I50

>  <activity_comment>  (298) 
None

$$$$

     RDKit          

 22 24  0  0  0  0  0  0  0  0999 V2000
    0.0000    0.0000    0.0000 N   0  0  0  0  0  0  0  0  0  0  0  0
    0.0000    0.0000    0.0000 S   0  0  0  0  0  0  0  0  0  0  0  0
    0.0000    0.0000    0.0000 O   0  0  0  0  0  0  0  0  0  0  0  0
    0.0000    0.0000    0.0000 O   0  0  0  0  0  0  0  0  0  0  0  0
    0.0000    0.0000    0.0000 C   0  0  0  0  0  0  0  0  0  0  0  0
    0.0000    0.0000    0.0000 N   0  0  0  0  0  0  0  0  0  0  0  0
    0.0000    0.0000    0.0000 C   0  0  0  0  0  0  0  0  0  0  0  0
    0.0000    0.0000    0.0000 C   0  0  0  0  0  0  0  0  0  0  0  0
    0.0000    0.0000    0.0000 C   0  0  0  0  0  0  0  0  0  0  0  0
    0.0000    0.0000    0.0000 C   0  0  0  0  0  0  0  0  0  0  0  0
    0.0000    0.0000    0.0000 O   0  0  0  0  0  0  0  0  0  0  0  0
    0.0000    0.0000    0.0000 C   0  0  0  0  0  0  0  0  0  0  0  0
    0.0000    0.0000    0.0000 O   0  0  0  0  0  0  0  0  0  0  0  0
    0.0000    0.0000    0.0000 C   0  0  0  0  0  0  0  0  0  0  0  0
    0.0000    0.0000    0.0000 C   0  0  0  0  0  0  0  0  0  0  0  0
    0.0000    0.0000    0.0000 C   0  0  0  0  0  0  0  0  0  0  0  0
    0.0000    0.0000    0.0000 C   0  0  0  0  0  0  0  0  0  0  0  0
    0.0000    0.0000    0.0000 C   0  0  0  0  0  0  0  0  0  0  0  0
    0.0000    0.0000    0.0000 C   0  0  0  0  0  0  0  0  0  0  0  0
    0.0000    0.0000    0.0000 C   0  0  0  0  0  0  0  0  0  0  0  0
    0.0000    0.0000    0.0000 C   0  0  0  0  0  0  0  0  0  0  0  0
    0.0000    0.0000    0.0000 S   0  0  0  0  0  0  0  0  0  0  0  0
  1  2  1  0
  2  3  2  0
  2  4  2  0
  2  5  1  0
  5  6  2  0
  6  7  1  0
  7  8  2  0
  8  9  1  0
  9 10  2  0
 10 11  1  0
 11 12  1  0
 12 13  2  0
 12 14  1  0
 14 15  1  0
 15 16  1  0
 16 17  1  0
 17 18  1  0
 18 19  1  0
 10 20  1  0
 20 21  2  0
 21 22  1  0
 22  5  1  0
 21  7  1  0
 19 14  1  0
M  END
>  <pIC50>  (299) 
8.22

>  <ChEMBL_ID>  (299) 
CHEMBL312813

>  <document_journal>  (299) 
J. Med. Chem.

>  <bao_endpoint>  (299) 
BAO_0000190

>  <potential_duplicate>  (299) 
False

>  <uo_units>  (299) 
UO_0000065

>  <canonical_smiles>  (299) 
NS(=O)(=O)c1nc2ccc(OC(=O)C3CCCCC3)cc2s1

>  <parent_molecule_chembl_id>  (299) 
CHEMBL312813

>  <assay_type>  (299) 
B

>  <src_id>  (299) 
1

>  <ligand_efficiency>  (299) 
{u'le': u'0.51', u'bei': u'24.15', u'sei': u'6.05', u'lle': u'5.17'}

>  <standard_flag>  (299) 
True

>  <molecule_chembl_id>  (299) 
CHEMBL312813

>  <target_organism>  (299) 
Homo sapiens

>  <standard_units>  (299) 
nM

>  <record_id>  (299) 
149023

>  <document_chembl_id>  (299) 
CHEMBL1124628

>  <bao_format>  (299) 
BAO_0000357

>  <data_validity_description>  (299) 
None

>  <activity_id>  (299) 
1289253

>  <standard_type>  (299) 
IC50

>  <target_chembl_id>  (299) 
CHEMBL205

>  <data_validity_comment>  (299) 
None

>  <published_value>  (299) 
6E-9

>  <document_year>  (299) 
1989

>  <target_pref_name>  (299) 
Carbonic anhydrase II

>  <assay_chembl_id>  (299) 
CHEMBL656574

>  <standard_relation>  (299) 
=

>  <assay_description>  (299) 
In vitro inhibition of human Carbonic Anhydrase II

>  <published_relation>  (299) 
=

>  <standard_value>  (299) 
6

>  <qudt_units>  (299) 
http://www.openphacts.org/units/Nanomolar

>  <target_tax_id>  (299) 
9606

>  <bao_label>  (299) 
single protein format

>  <published_units>  (299) 
M

>  <pchembl_value>  (299) 
8.22

>  <published_type>  (299) 
I50

>  <activity_comment>  (299) 
None

$$$$

     RDKit          

 19 20  0  0  0  0  0  0  0  0999 V2000
    0.0000    0.0000    0.0000 C   0  0  0  0  0  0  0  0  0  0  0  0
    0.0000    0.0000    0.0000 C   0  0  0  0  0  0  0  0  0  0  0  0
    0.0000    0.0000    0.0000 C   0  0  0  0  0  0  0  0  0  0  0  0
    0.0000    0.0000    0.0000 C   0  0  0  0  0  0  0  0  0  0  0  0
    0.0000    0.0000    0.0000 O   0  0  0  0  0  0  0  0  0  0  0  0
    0.0000    0.0000    0.0000 O   0  0  0  0  0  0  0  0  0  0  0  0
    0.0000    0.0000    0.0000 C   0  0  0  0  0  0  0  0  0  0  0  0
    0.0000    0.0000    0.0000 C   0  0  0  0  0  0  0  0  0  0  0  0
    0.0000    0.0000    0.0000 C   0  0  0  0  0  0  0  0  0  0  0  0
    0.0000    0.0000    0.0000 C   0  0  0  0  0  0  0  0  0  0  0  0
    0.0000    0.0000    0.0000 S   0  0  0  0  0  0  0  0  0  0  0  0
    0.0000    0.0000    0.0000 C   0  0  0  0  0  0  0  0  0  0  0  0
    0.0000    0.0000    0.0000 N   0  0  0  0  0  0  0  0  0  0  0  0
    0.0000    0.0000    0.0000 C   0  0  0  0  0  0  0  0  0  0  0  0
    0.0000    0.0000    0.0000 C   0  0  0  0  0  0  0  0  0  0  0  0
    0.0000    0.0000    0.0000 S   0  0  0  0  0  0  0  0  0  0  0  0
    0.0000    0.0000    0.0000 O   0  0  0  0  0  0  0  0  0  0  0  0
    0.0000    0.0000    0.0000 O   0  0  0  0  0  0  0  0  0  0  0  0
    0.0000    0.0000    0.0000 N   0  0  0  0  0  0  0  0  0  0  0  0
  1  2  1  0
  2  3  2  0
  3  4  1  0
  4  5  2  0
  4  6  1  0
  6  7  1  0
  7  8  2  0
  8  9  1  0
  9 10  2  0
 10 11  1  0
 11 12  1  0
 12 13  2  0
 13 14  1  0
 14 15  2  0
 12 16  1  0
 16 17  2  0
 16 18  2  0
 16 19  1  0
 15  7  1  0
 14 10  1  0
M  END
>  <pIC50>  (300) 
8.68

>  <ChEMBL_ID>  (300) 
CHEMBL79324

>  <document_journal>  (300) 
J. Med. Chem.

>  <bao_endpoint>  (300) 
BAO_0000190

>  <potential_duplicate>  (300) 
False

>  <uo_units>  (300) 
UO_0000065

>  <canonical_smiles>  (300) 
C\C=C\C(=O)Oc1ccc2sc(nc2c1)S(=O)(=O)N

>  <parent_molecule_chembl_id>  (300) 
CHEMBL79324

>  <assay_type>  (300) 
B

>  <src_id>  (300) 
1

>  <ligand_efficiency>  (300) 
{u'le': u'0.62', u'bei': u'29.09', u'sei': u'6.38', u'lle': u'6.65'}

>  <standard_flag>  (300) 
True

>  <molecule_chembl_id>  (300) 
CHEMBL79324

>  <target_organism>  (300) 
Homo sapiens

>  <standard_units>  (300) 
nM

>  <record_id>  (300) 
149038

>  <document_chembl_id>  (300) 
CHEMBL1124628

>  <bao_format>  (300) 
BAO_0000357

>  <data_validity_description>  (300) 
None

>  <activity_id>  (300) 
1289374

>  <standard_type>  (300) 
IC50

>  <target_chembl_id>  (300) 
CHEMBL205

>  <data_validity_comment>  (300) 
None

>  <published_value>  (300) 
2.1E-9

>  <document_year>  (300) 
1989

>  <target_pref_name>  (300) 
Carbonic anhydrase II

>  <assay_chembl_id>  (300) 
CHEMBL656575

>  <standard_relation>  (300) 
=

>  <assay_description>  (300) 
In vitro inhibitory activity against human Carbonic anhydrase II

>  <published_relation>  (300) 
=

>  <standard_value>  (300) 
2.1

>  <qudt_units>  (300) 
http://www.openphacts.org/units/Nanomolar

>  <target_tax_id>  (300) 
9606

>  <bao_label>  (300) 
single protein format

>  <published_units>  (300) 
M

>  <pchembl_value>  (300) 
8.68

>  <published_type>  (300) 
I50

>  <activity_comment>  (300) 
None

$$$$

     RDKit          

 19 20  0  0  0  0  0  0  0  0999 V2000
    0.0000    0.0000    0.0000 C   0  0  0  0  0  0  0  0  0  0  0  0
    0.0000    0.0000    0.0000 C   0  0  0  0  0  0  0  0  0  0  0  0
    0.0000    0.0000    0.0000 C   0  0  0  0  0  0  0  0  0  0  0  0
    0.0000    0.0000    0.0000 C   0  0  0  0  0  0  0  0  0  0  0  0
    0.0000    0.0000    0.0000 O   0  0  0  0  0  0  0  0  0  0  0  0
    0.0000    0.0000    0.0000 O   0  0  0  0  0  0  0  0  0  0  0  0
    0.0000    0.0000    0.0000 C   0  0  0  0  0  0  0  0  0  0  0  0
    0.0000    0.0000    0.0000 C   0  0  0  0  0  0  0  0  0  0  0  0
    0.0000    0.0000    0.0000 C   0  0  0  0  0  0  0  0  0  0  0  0
    0.0000    0.0000    0.0000 C   0  0  0  0  0  0  0  0  0  0  0  0
    0.0000    0.0000    0.0000 N   0  0  0  0  0  0  0  0  0  0  0  0
    0.0000    0.0000    0.0000 C   0  0  0  0  0  0  0  0  0  0  0  0
    0.0000    0.0000    0.0000 S   0  0  0  0  0  0  0  0  0  0  0  0
    0.0000    0.0000    0.0000 C   0  0  0  0  0  0  0  0  0  0  0  0
    0.0000    0.0000    0.0000 C   0  0  0  0  0  0  0  0  0  0  0  0
    0.0000    0.0000    0.0000 S   0  0  0  0  0  0  0  0  0  0  0  0
    0.0000    0.0000    0.0000 O   0  0  0  0  0  0  0  0  0  0  0  0
    0.0000    0.0000    0.0000 O   0  0  0  0  0  0  0  0  0  0  0  0
    0.0000    0.0000    0.0000 N   0  0  0  0  0  0  0  0  0  0  0  0
  1  2  1  0
  2  3  1  0
  2  4  1  0
  4  5  2  0
  4  6  1  0
  6  7  1  0
  7  8  2  0
  8  9  1  0
  9 10  2  0
 10 11  1  0
 11 12  2  0
 12 13  1  0
 13 14  1  0
 14 15  2  0
 12 16  1  0
 16 17  2  0
 16 18  2  0
 16 19  1  0
 15  7  1  0
 14 10  1  0
M  END
>  <pIC50>  (301) 
8.17

>  <ChEMBL_ID>  (301) 
CHEMBL82557

>  <document_journal>  (301) 
J. Med. Chem.

>  <bao_endpoint>  (301) 
BAO_0000190

>  <potential_duplicate>  (301) 
False

>  <uo_units>  (301) 
UO_0000065

>  <canonical_smiles>  (301) 
CC(C)C(=O)Oc1ccc2nc(sc2c1)S(=O)(=O)N

>  <parent_molecule_chembl_id>  (301) 
CHEMBL82557

>  <assay_type>  (301) 
B

>  <src_id>  (301) 
1

>  <ligand_efficiency>  (301) 
{u'le': u'0.59', u'bei': u'27.19', u'sei': u'6.01', u'lle': u'6.11'}

>  <standard_flag>  (301) 
True

>  <molecule_chembl_id>  (301) 
CHEMBL82557

>  <target_organism>  (301) 
Homo sapiens

>  <standard_units>  (301) 
nM

>  <record_id>  (301) 
149024

>  <document_chembl_id>  (301) 
CHEMBL1124628

>  <bao_format>  (301) 
BAO_0000357

>  <data_validity_description>  (301) 
None

>  <activity_id>  (301) 
1290519

>  <standard_type>  (301) 
IC50

>  <target_chembl_id>  (301) 
CHEMBL205

>  <data_validity_comment>  (301) 
None

>  <published_value>  (301) 
6.8E-9

>  <document_year>  (301) 
1989

>  <target_pref_name>  (301) 
Carbonic anhydrase II

>  <assay_chembl_id>  (301) 
CHEMBL656574

>  <standard_relation>  (301) 
=

>  <assay_description>  (301) 
In vitro inhibition of human Carbonic Anhydrase II

>  <published_relation>  (301) 
=

>  <standard_value>  (301) 
6.8

>  <qudt_units>  (301) 
http://www.openphacts.org/units/Nanomolar

>  <target_tax_id>  (301) 
9606

>  <bao_label>  (301) 
single protein format

>  <published_units>  (301) 
M

>  <pchembl_value>  (301) 
8.17

>  <published_type>  (301) 
I50

>  <activity_comment>  (301) 
None

$$$$

     RDKit          

 26 28  0  0  0  0  0  0  0  0999 V2000
    0.0000    0.0000    0.0000 C   0  0  0  0  0  0  0  0  0  0  0  0
    0.0000    0.0000    0.0000 O   0  0  0  0  0  0  0  0  0  0  0  0
    0.0000    0.0000    0.0000 C   0  0  0  0  0  0  0  0  0  0  0  0
    0.0000    0.0000    0.0000 C   0  0  0  0  0  0  0  0  0  0  0  0
    0.0000    0.0000    0.0000 C   0  0  0  0  0  0  0  0  0  0  0  0
    0.0000    0.0000    0.0000 C   0  0  0  0  0  0  0  0  0  0  0  0
    0.0000    0.0000    0.0000 C   0  0  0  0  0  0  0  0  0  0  0  0
    0.0000    0.0000    0.0000 O   0  0  0  0  0  0  0  0  0  0  0  0
    0.0000    0.0000    0.0000 C   0  0  0  0  0  0  0  0  0  0  0  0
    0.0000    0.0000    0.0000 C   0  0  0  0  0  0  0  0  0  0  0  0
    0.0000    0.0000    0.0000 C   0  0  0  0  0  0  0  0  0  0  0  0
    0.0000    0.0000    0.0000 O   0  0  0  0  0  0  0  0  0  0  0  0
    0.0000    0.0000    0.0000 O   0  0  0  0  0  0  0  0  0  0  0  0
    0.0000    0.0000    0.0000 C   0  0  0  0  0  0  0  0  0  0  0  0
    0.0000    0.0000    0.0000 C   0  0  0  0  0  0  0  0  0  0  0  0
    0.0000    0.0000    0.0000 C   0  0  0  0  0  0  0  0  0  0  0  0
    0.0000    0.0000    0.0000 C   0  0  0  0  0  0  0  0  0  0  0  0
    0.0000    0.0000    0.0000 N   0  0  0  0  0  0  0  0  0  0  0  0
    0.0000    0.0000    0.0000 C   0  0  0  0  0  0  0  0  0  0  0  0
    0.0000    0.0000    0.0000 S   0  0  0  0  0  0  0  0  0  0  0  0
    0.0000    0.0000    0.0000 C   0  0  0  0  0  0  0  0  0  0  0  0
    0.0000    0.0000    0.0000 C   0  0  0  0  0  0  0  0  0  0  0  0
    0.0000    0.0000    0.0000 S   0  0  0  0  0  0  0  0  0  0  0  0
    0.0000    0.0000    0.0000 O   0  0  0  0  0  0  0  0  0  0  0  0
    0.0000    0.0000    0.0000 O   0  0  0  0  0  0  0  0  0  0  0  0
    0.0000    0.0000    0.0000 N   0  0  0  0  0  0  0  0  0  0  0  0
  1  2  1  0
  2  3  1  0
  3  4  2  0
  4  5  1  0
  5  6  2  0
  6  7  1  0
  7  8  1  0
  8  9  1  0
  7 10  2  0
 10 11  1  0
 11 12  2  0
 11 13  1  0
 13 14  1  0
 14 15  2  0
 15 16  1  0
 16 17  2  0
 17 18  1  0
 18 19  2  0
 19 20  1  0
 20 21  1  0
 21 22  2  0
 19 23  1  0
 23 24  2  0
 23 25  2  0
 23 26  1  0
 10  3  1  0
 22 14  1  0
 21 17  1  0
M  END
>  <pIC50>  (302) 
8.4

>  <ChEMBL_ID>  (302) 
CHEMBL82510

>  <document_journal>  (302) 
J. Med. Chem.

>  <bao_endpoint>  (302) 
BAO_0000190

>  <potential_duplicate>  (302) 
False

>  <uo_units>  (302) 
UO_0000065

>  <canonical_smiles>  (302) 
COc1cccc(OC)c1C(=O)Oc2ccc3nc(sc3c2)S(=O)(=O)N

>  <parent_molecule_chembl_id>  (302) 
CHEMBL82510

>  <assay_type>  (302) 
B

>  <src_id>  (302) 
1

>  <ligand_efficiency>  (302) 
{u'le': u'0.44', u'bei': u'21.29', u'sei': u'5.44', u'lle': u'5.84'}

>  <standard_flag>  (302) 
True

>  <molecule_chembl_id>  (302) 
CHEMBL82510

>  <target_organism>  (302) 
Homo sapiens

>  <standard_units>  (302) 
nM

>  <record_id>  (302) 
149009

>  <document_chembl_id>  (302) 
CHEMBL1124628

>  <bao_format>  (302) 
BAO_0000357

>  <data_validity_description>  (302) 
None

>  <activity_id>  (302) 
1290531

>  <standard_type>  (302) 
IC50

>  <target_chembl_id>  (302) 
CHEMBL205

>  <data_validity_comment>  (302) 
None

>  <published_value>  (302) 
4E-9

>  <document_year>  (302) 
1989

>  <target_pref_name>  (302) 
Carbonic anhydrase II

>  <assay_chembl_id>  (302) 
CHEMBL656574

>  <standard_relation>  (302) 
=

>  <assay_description>  (302) 
In vitro inhibition of human Carbonic Anhydrase II

>  <published_relation>  (302) 
=

>  <standard_value>  (302) 
4

>  <qudt_units>  (302) 
http://www.openphacts.org/units/Nanomolar

>  <target_tax_id>  (302) 
9606

>  <bao_label>  (302) 
single protein format

>  <published_units>  (302) 
M

>  <pchembl_value>  (302) 
8.4

>  <published_type>  (302) 
I50

>  <activity_comment>  (302) 
None

$$$$

     RDKit          

 14 15  0  0  0  0  0  0  0  0999 V2000
    0.0000    0.0000    0.0000 N   0  0  0  0  0  0  0  0  0  0  0  0
    0.0000    0.0000    0.0000 S   0  0  0  0  0  0  0  0  0  0  0  0
    0.0000    0.0000    0.0000 O   0  0  0  0  0  0  0  0  0  0  0  0
    0.0000    0.0000    0.0000 O   0  0  0  0  0  0  0  0  0  0  0  0
    0.0000    0.0000    0.0000 C   0  0  0  0  0  0  0  0  0  0  0  0
    0.0000    0.0000    0.0000 N   0  0  0  0  0  0  0  0  0  0  0  0
    0.0000    0.0000    0.0000 C   0  0  0  0  0  0  0  0  0  0  0  0
    0.0000    0.0000    0.0000 C   0  0  0  0  0  0  0  0  0  0  0  0
    0.0000    0.0000    0.0000 C   0  0  0  0  0  0  0  0  0  0  0  0
    0.0000    0.0000    0.0000 C   0  0  0  0  0  0  0  0  0  0  0  0
    0.0000    0.0000    0.0000 O   0  0  0  0  0  0  0  0  0  0  0  0
    0.0000    0.0000    0.0000 C   0  0  0  0  0  0  0  0  0  0  0  0
    0.0000    0.0000    0.0000 C   0  0  0  0  0  0  0  0  0  0  0  0
    0.0000    0.0000    0.0000 S   0  0  0  0  0  0  0  0  0  0  0  0
  1  2  1  0
  2  3  2  0
  2  4  2  0
  2  5  1  0
  5  6  2  0
  6  7  1  0
  7  8  2  0
  8  9  1  0
  9 10  2  0
 10 11  1  0
 10 12  1  0
 12 13  2  0
 13 14  1  0
 14  5  1  0
 13  7  1  0
M  END
>  <pIC50>  (303) 
8.4

>  <ChEMBL_ID>  (303) 
CHEMBL6685

>  <document_journal>  (303) 
J. Med. Chem.

>  <bao_endpoint>  (303) 
BAO_0000190

>  <potential_duplicate>  (303) 
False

>  <uo_units>  (303) 
UO_0000065

>  <canonical_smiles>  (303) 
NS(=O)(=O)c1nc2ccc(O)cc2s1

>  <parent_molecule_chembl_id>  (303) 
CHEMBL6685

>  <assay_type>  (303) 
B

>  <src_id>  (303) 
1

>  <ligand_efficiency>  (303) 
{u'le': u'0.82', u'bei': u'36.47', u'sei': u'6.47', u'lle': u'7.48'}

>  <standard_flag>  (303) 
True

>  <molecule_chembl_id>  (303) 
CHEMBL6685

>  <target_organism>  (303) 
Homo sapiens

>  <standard_units>  (303) 
nM

>  <record_id>  (303) 
149020

>  <document_chembl_id>  (303) 
CHEMBL1124628

>  <bao_format>  (303) 
BAO_0000357

>  <data_validity_description>  (303) 
None

>  <activity_id>  (303) 
1290532

>  <standard_type>  (303) 
IC50

>  <target_chembl_id>  (303) 
CHEMBL205

>  <data_validity_comment>  (303) 
None

>  <published_value>  (303) 
4E-9

>  <document_year>  (303) 
1989

>  <target_pref_name>  (303) 
Carbonic anhydrase II

>  <assay_chembl_id>  (303) 
CHEMBL656574

>  <standard_relation>  (303) 
=

>  <assay_description>  (303) 
In vitro inhibition of human Carbonic Anhydrase II

>  <published_relation>  (303) 
=

>  <standard_value>  (303) 
4

>  <qudt_units>  (303) 
http://www.openphacts.org/units/Nanomolar

>  <target_tax_id>  (303) 
9606

>  <bao_label>  (303) 
single protein format

>  <published_units>  (303) 
M

>  <pchembl_value>  (303) 
8.4

>  <published_type>  (303) 
I50

>  <activity_comment>  (303) 
None

$$$$

     RDKit          

 18 19  0  0  0  0  0  0  0  0999 V2000
    0.0000    0.0000    0.0000 C   0  0  0  0  0  0  0  0  0  0  0  0
    0.0000    0.0000    0.0000 C   0  0  0  0  0  0  0  0  0  0  0  0
    0.0000    0.0000    0.0000 N   0  0  0  0  0  0  0  0  0  0  0  0
    0.0000    0.0000    0.0000 C   0  0  0  0  0  0  0  0  0  0  0  0
    0.0000    0.0000    0.0000 C   0  0  0  0  0  0  0  0  0  0  0  0
    0.0000    0.0000    0.0000 C   0  0  0  0  0  0  0  0  0  0  0  0
    0.0000    0.0000    0.0000 S   0  0  0  0  0  0  0  0  0  0  0  0
    0.0000    0.0000    0.0000 O   0  0  0  0  0  0  0  0  0  0  0  0
    0.0000    0.0000    0.0000 O   0  0  0  0  0  0  0  0  0  0  0  0
    0.0000    0.0000    0.0000 C   0  0  0  0  0  0  0  0  0  0  0  0
    0.0000    0.0000    0.0000 S   0  0  0  0  0  0  0  0  0  0  0  0
    0.0000    0.0000    0.0000 C   0  0  0  0  0  0  0  0  0  0  0  0
    0.0000    0.0000    0.0000 C   0  0  0  0  0  0  0  0  0  0  0  0
    0.0000    0.0000    0.0000 C   0  0  0  0  0  0  0  0  0  0  0  0
    0.0000    0.0000    0.0000 S   0  0  0  0  0  0  0  0  0  0  0  0
    0.0000    0.0000    0.0000 O   0  0  0  0  0  0  0  0  0  0  0  0
    0.0000    0.0000    0.0000 O   0  0  0  0  0  0  0  0  0  0  0  0
    0.0000    0.0000    0.0000 N   0  0  0  0  0  0  0  0  0  0  0  0
  1  2  1  0
  2  3  1  0
  3  4  1  0
  4  5  1  0
  5  6  1  0
  6  7  1  0
  7  8  2  0
  7  9  2  0
  7 10  1  0
 10 11  1  0
 11 12  1  0
 12 13  2  0
 13 14  1  0
 12 15  1  0
 15 16  2  0
 15 17  2  0
 15 18  1  0
 14  4  1  0
 14 10  2  0
M  END
>  <pIC50>  (304) 
9.07

>  <ChEMBL_ID>  (304) 
CHEMBL1788291

>  <document_journal>  (304) 
J. Med. Chem.

>  <bao_endpoint>  (304) 
BAO_0000190

>  <potential_duplicate>  (304) 
False

>  <uo_units>  (304) 
UO_0000065

>  <canonical_smiles>  (304) 
Cl.CCN[C@H]1CCS(=O)(=O)c2sc(cc12)S(=O)(=O)N

>  <parent_molecule_chembl_id>  (304) 
CHEMBL1789876

>  <assay_type>  (304) 
B

>  <src_id>  (304) 
1

>  <ligand_efficiency>  (304) 
{u'le': u'0.64', u'bei': u'27.2', u'sei': u'5.58', u'lle': u'8.67'}

>  <standard_flag>  (304) 
True

>  <molecule_chembl_id>  (304) 
CHEMBL1788291

>  <target_organism>  (304) 
Homo sapiens

>  <standard_units>  (304) 
nM

>  <record_id>  (304) 
150704

>  <document_chembl_id>  (304) 
CHEMBL1124372

>  <bao_format>  (304) 
BAO_0000357

>  <data_validity_description>  (304) 
None

>  <activity_id>  (304) 
1290639

>  <standard_type>  (304) 
IC50

>  <target_chembl_id>  (304) 
CHEMBL205

>  <data_validity_comment>  (304) 
None

>  <published_value>  (304) 
3.6

>  <document_year>  (304) 
1989

>  <target_pref_name>  (304) 
Carbonic anhydrase II

>  <assay_chembl_id>  (304) 
CHEMBL656566

>  <standard_relation>  (304) 
=

>  <assay_description>  (304) 
50% inhibitory concentration against human carbonic anhydrase II (HCA II) after pre-incubation at 3 degree C

>  <published_relation>  (304) 
=

>  <standard_value>  (304) 
3.6

>  <qudt_units>  (304) 
http://www.openphacts.org/units/Nanomolar

>  <target_tax_id>  (304) 
9606

>  <bao_label>  (304) 
single protein format

>  <published_units>  (304) 
nM

>  <pchembl_value>  (304) 
8.44

>  <published_type>  (304) 
I50

>  <activity_comment>  (304) 
None

$$$$

     RDKit          

 23 25  0  0  0  0  0  0  0  0999 V2000
    0.0000    0.0000    0.0000 N   0  0  0  0  0  0  0  0  0  0  0  0
    0.0000    0.0000    0.0000 S   0  0  0  0  0  0  0  0  0  0  0  0
    0.0000    0.0000    0.0000 O   0  0  0  0  0  0  0  0  0  0  0  0
    0.0000    0.0000    0.0000 O   0  0  0  0  0  0  0  0  0  0  0  0
    0.0000    0.0000    0.0000 C   0  0  0  0  0  0  0  0  0  0  0  0
    0.0000    0.0000    0.0000 N   0  0  0  0  0  0  0  0  0  0  0  0
    0.0000    0.0000    0.0000 C   0  0  0  0  0  0  0  0  0  0  0  0
    0.0000    0.0000    0.0000 C   0  0  0  0  0  0  0  0  0  0  0  0
    0.0000    0.0000    0.0000 C   0  0  0  0  0  0  0  0  0  0  0  0
    0.0000    0.0000    0.0000 C   0  0  0  0  0  0  0  0  0  0  0  0
    0.0000    0.0000    0.0000 O   0  0  0  0  0  0  0  0  0  0  0  0
    0.0000    0.0000    0.0000 C   0  0  0  0  0  0  0  0  0  0  0  0
    0.0000    0.0000    0.0000 O   0  0  0  0  0  0  0  0  0  0  0  0
    0.0000    0.0000    0.0000 C   0  0  0  0  0  0  0  0  0  0  0  0
    0.0000    0.0000    0.0000 C   0  0  0  0  0  0  0  0  0  0  0  0
    0.0000    0.0000    0.0000 C   0  0  0  0  0  0  0  0  0  0  0  0
    0.0000    0.0000    0.0000 C   0  0  0  0  0  0  0  0  0  0  0  0
    0.0000    0.0000    0.0000 C   0  0  0  0  0  0  0  0  0  0  0  0
    0.0000    0.0000    0.0000 C   0  0  0  0  0  0  0  0  0  0  0  0
    0.0000    0.0000    0.0000 C   0  0  0  0  0  0  0  0  0  0  0  0
    0.0000    0.0000    0.0000 C   0  0  0  0  0  0  0  0  0  0  0  0
    0.0000    0.0000    0.0000 C   0  0  0  0  0  0  0  0  0  0  0  0
    0.0000    0.0000    0.0000 S   0  0  0  0  0  0  0  0  0  0  0  0
  1  2  1  0
  2  3  2  0
  2  4  2  0
  2  5  1  0
  5  6  2  0
  6  7  1  0
  7  8  2  0
  8  9  1  0
  9 10  2  0
 10 11  1  0
 11 12  1  0
 12 13  2  0
 12 14  1  0
 14 15  1  0
 15 16  2  0
 16 17  1  0
 17 18  2  0
 18 19  1  0
 19 20  2  0
 10 21  1  0
 21 22  2  0
 22 23  1  0
 23  5  1  0
 22  7  1  0
 20 15  1  0
M  END
>  <pIC50>  (305) 
7.52

>  <ChEMBL_ID>  (305) 
CHEMBL84169

>  <document_journal>  (305) 
J. Med. Chem.

>  <bao_endpoint>  (305) 
BAO_0000190

>  <potential_duplicate>  (305) 
False

>  <uo_units>  (305) 
UO_0000065

>  <canonical_smiles>  (305) 
NS(=O)(=O)c1nc2ccc(OC(=O)Cc3ccccc3)cc2s1

>  <parent_molecule_chembl_id>  (305) 
CHEMBL84169

>  <assay_type>  (305) 
B

>  <src_id>  (305) 
1

>  <ligand_efficiency>  (305) 
{u'le': u'0.45', u'bei': u'21.59', u'sei': u'5.53', u'lle': u'4.89'}

>  <standard_flag>  (305) 
True

>  <molecule_chembl_id>  (305) 
CHEMBL84169

>  <target_organism>  (305) 
Homo sapiens

>  <standard_units>  (305) 
nM

>  <record_id>  (305) 
149031

>  <document_chembl_id>  (305) 
CHEMBL1124628

>  <bao_format>  (305) 
BAO_0000357

>  <data_validity_description>  (305) 
None

>  <activity_id>  (305) 
1292039

>  <standard_type>  (305) 
IC50

>  <target_chembl_id>  (305) 
CHEMBL205

>  <data_validity_comment>  (305) 
None

>  <published_value>  (305) 
3E-8

>  <document_year>  (305) 
1989

>  <target_pref_name>  (305) 
Carbonic anhydrase II

>  <assay_chembl_id>  (305) 
CHEMBL656575

>  <standard_relation>  (305) 
=

>  <assay_description>  (305) 
In vitro inhibitory activity against human Carbonic anhydrase II

>  <published_relation>  (305) 
=

>  <standard_value>  (305) 
30

>  <qudt_units>  (305) 
http://www.openphacts.org/units/Nanomolar

>  <target_tax_id>  (305) 
9606

>  <bao_label>  (305) 
single protein format

>  <published_units>  (305) 
M

>  <pchembl_value>  (305) 
7.52

>  <published_type>  (305) 
I50

>  <activity_comment>  (305) 
None

$$$$

     RDKit          

 19 20  0  0  0  0  0  0  0  0999 V2000
    0.0000    0.0000    0.0000 C   0  0  0  0  0  0  0  0  0  0  0  0
    0.0000    0.0000    0.0000 C   0  0  0  0  0  0  0  0  0  0  0  0
    0.0000    0.0000    0.0000 O   0  0  0  0  0  0  0  0  0  0  0  0
    0.0000    0.0000    0.0000 C   0  0  0  0  0  0  0  0  0  0  0  0
    0.0000    0.0000    0.0000 O   0  0  0  0  0  0  0  0  0  0  0  0
    0.0000    0.0000    0.0000 O   0  0  0  0  0  0  0  0  0  0  0  0
    0.0000    0.0000    0.0000 C   0  0  0  0  0  0  0  0  0  0  0  0
    0.0000    0.0000    0.0000 C   0  0  0  0  0  0  0  0  0  0  0  0
    0.0000    0.0000    0.0000 C   0  0  0  0  0  0  0  0  0  0  0  0
    0.0000    0.0000    0.0000 C   0  0  0  0  0  0  0  0  0  0  0  0
    0.0000    0.0000    0.0000 N   0  0  0  0  0  0  0  0  0  0  0  0
    0.0000    0.0000    0.0000 C   0  0  0  0  0  0  0  0  0  0  0  0
    0.0000    0.0000    0.0000 S   0  0  0  0  0  0  0  0  0  0  0  0
    0.0000    0.0000    0.0000 C   0  0  0  0  0  0  0  0  0  0  0  0
    0.0000    0.0000    0.0000 C   0  0  0  0  0  0  0  0  0  0  0  0
    0.0000    0.0000    0.0000 S   0  0  0  0  0  0  0  0  0  0  0  0
    0.0000    0.0000    0.0000 O   0  0  0  0  0  0  0  0  0  0  0  0
    0.0000    0.0000    0.0000 O   0  0  0  0  0  0  0  0  0  0  0  0
    0.0000    0.0000    0.0000 N   0  0  0  0  0  0  0  0  0  0  0  0
  1  2  1  0
  2  3  1  0
  3  4  1  0
  4  5  2  0
  4  6  1  0
  6  7  1  0
  7  8  2  0
  8  9  1  0
  9 10  2  0
 10 11  1  0
 11 12  2  0
 12 13  1  0
 13 14  1  0
 14 15  2  0
 12 16  1  0
 16 17  2  0
 16 18  2  0
 16 19  1  0
 15  7  1  0
 14 10  1  0
M  END
>  <pIC50>  (306) 
8.17

>  <ChEMBL_ID>  (306) 
CHEMBL80028

>  <document_journal>  (306) 
J. Med. Chem.

>  <bao_endpoint>  (306) 
BAO_0000190

>  <potential_duplicate>  (306) 
False

>  <uo_units>  (306) 
UO_0000065

>  <canonical_smiles>  (306) 
CCOC(=O)Oc1ccc2nc(sc2c1)S(=O)(=O)N

>  <parent_molecule_chembl_id>  (306) 
CHEMBL80028

>  <assay_type>  (306) 
B

>  <src_id>  (306) 
1

>  <ligand_efficiency>  (306) 
{u'le': u'0.59', u'bei': u'27.02', u'sei': u'5.63', u'lle': u'6.25'}

>  <standard_flag>  (306) 
True

>  <molecule_chembl_id>  (306) 
CHEMBL80028

>  <target_organism>  (306) 
Homo sapiens

>  <standard_units>  (306) 
nM

>  <record_id>  (306) 
149018

>  <document_chembl_id>  (306) 
CHEMBL1124628

>  <bao_format>  (306) 
BAO_0000357

>  <data_validity_description>  (306) 
None

>  <activity_id>  (306) 
1293139

>  <standard_type>  (306) 
IC50

>  <target_chembl_id>  (306) 
CHEMBL205

>  <data_validity_comment>  (306) 
None

>  <published_value>  (306) 
6.8E-9

>  <document_year>  (306) 
1989

>  <target_pref_name>  (306) 
Carbonic anhydrase II

>  <assay_chembl_id>  (306) 
CHEMBL656574

>  <standard_relation>  (306) 
=

>  <assay_description>  (306) 
In vitro inhibition of human Carbonic Anhydrase II

>  <published_relation>  (306) 
=

>  <standard_value>  (306) 
6.8

>  <qudt_units>  (306) 
http://www.openphacts.org/units/Nanomolar

>  <target_tax_id>  (306) 
9606

>  <bao_label>  (306) 
single protein format

>  <published_units>  (306) 
M

>  <pchembl_value>  (306) 
8.17

>  <published_type>  (306) 
I50

>  <activity_comment>  (306) 
None

$$$$

     RDKit          

 24 26  0  0  0  0  0  0  0  0999 V2000
    0.0000    0.0000    0.0000 C   0  0  0  0  0  0  0  0  0  0  0  0
    0.0000    0.0000    0.0000 C   0  0  0  0  0  0  0  0  0  0  0  0
    0.0000    0.0000    0.0000 C   0  0  0  0  0  0  0  0  0  0  0  0
    0.0000    0.0000    0.0000 C   0  0  0  0  0  0  0  0  0  0  0  0
    0.0000    0.0000    0.0000 C   0  0  0  0  0  0  0  0  0  0  0  0
    0.0000    0.0000    0.0000 O   0  0  0  0  0  0  0  0  0  0  0  0
    0.0000    0.0000    0.0000 S   0  0  0  0  0  0  0  0  0  0  0  0
    0.0000    0.0000    0.0000 O   0  0  0  0  0  0  0  0  0  0  0  0
    0.0000    0.0000    0.0000 O   0  0  0  0  0  0  0  0  0  0  0  0
    0.0000    0.0000    0.0000 C   0  0  0  0  0  0  0  0  0  0  0  0
    0.0000    0.0000    0.0000 C   0  0  0  0  0  0  0  0  0  0  0  0
    0.0000    0.0000    0.0000 C   0  0  0  0  0  0  0  0  0  0  0  0
    0.0000    0.0000    0.0000 C   0  0  0  0  0  0  0  0  0  0  0  0
    0.0000    0.0000    0.0000 N   0  0  0  0  0  0  0  0  0  0  0  0
    0.0000    0.0000    0.0000 C   0  0  0  0  0  0  0  0  0  0  0  0
    0.0000    0.0000    0.0000 S   0  0  0  0  0  0  0  0  0  0  0  0
    0.0000    0.0000    0.0000 C   0  0  0  0  0  0  0  0  0  0  0  0
    0.0000    0.0000    0.0000 C   0  0  0  0  0  0  0  0  0  0  0  0
    0.0000    0.0000    0.0000 S   0  0  0  0  0  0  0  0  0  0  0  0
    0.0000    0.0000    0.0000 O   0  0  0  0  0  0  0  0  0  0  0  0
    0.0000    0.0000    0.0000 O   0  0  0  0  0  0  0  0  0  0  0  0
    0.0000    0.0000    0.0000 N   0  0  0  0  0  0  0  0  0  0  0  0
    0.0000    0.0000    0.0000 C   0  0  0  0  0  0  0  0  0  0  0  0
    0.0000    0.0000    0.0000 C   0  0  0  0  0  0  0  0  0  0  0  0
  1  2  1  0
  2  3  2  0
  3  4  1  0
  4  5  2  0
  5  6  1  0
  6  7  1  0
  7  8  2  0
  7  9  2  0
  7 10  1  0
 10 11  2  0
 11 12  1  0
 12 13  2  0
 13 14  1  0
 14 15  2  0
 15 16  1  0
 16 17  1  0
 17 18  2  0
 15 19  1  0
 19 20  2  0
 19 21  2  0
 19 22  1  0
  5 23  1  0
 23 24  2  0
 24  2  1  0
 18 10  1  0
 17 13  1  0
M  END
>  <pIC50>  (307) 
8.39

>  <ChEMBL_ID>  (307) 
CHEMBL84021

>  <document_journal>  (307) 
J. Med. Chem.

>  <bao_endpoint>  (307) 
BAO_0000190

>  <potential_duplicate>  (307) 
False

>  <uo_units>  (307) 
UO_0000065

>  <canonical_smiles>  (307) 
Cc1ccc(OS(=O)(=O)c2ccc3nc(sc3c2)S(=O)(=O)N)cc1

>  <parent_molecule_chembl_id>  (307) 
CHEMBL84021

>  <assay_type>  (307) 
B

>  <src_id>  (307) 
1

>  <ligand_efficiency>  (307) 
{u'le': u'0.48', u'bei': u'21.82', u'sei': u'5.2', u'lle': u'5.61'}

>  <standard_flag>  (307) 
True

>  <molecule_chembl_id>  (307) 
CHEMBL84021

>  <target_organism>  (307) 
Homo sapiens

>  <standard_units>  (307) 
nM

>  <record_id>  (307) 
149001

>  <document_chembl_id>  (307) 
CHEMBL1124628

>  <bao_format>  (307) 
BAO_0000357

>  <data_validity_description>  (307) 
None

>  <activity_id>  (307) 
1294546

>  <standard_type>  (307) 
IC50

>  <target_chembl_id>  (307) 
CHEMBL205

>  <data_validity_comment>  (307) 
None

>  <published_value>  (307) 
4.1E-9

>  <document_year>  (307) 
1989

>  <target_pref_name>  (307) 
Carbonic anhydrase II

>  <assay_chembl_id>  (307) 
CHEMBL656574

>  <standard_relation>  (307) 
=

>  <assay_description>  (307) 
In vitro inhibition of human Carbonic Anhydrase II

>  <published_relation>  (307) 
=

>  <standard_value>  (307) 
4.1

>  <qudt_units>  (307) 
http://www.openphacts.org/units/Nanomolar

>  <target_tax_id>  (307) 
9606

>  <bao_label>  (307) 
single protein format

>  <published_units>  (307) 
M

>  <pchembl_value>  (307) 
8.39

>  <published_type>  (307) 
I50

>  <activity_comment>  (307) 
None

$$$$

     RDKit          

 18 19  0  0  0  0  0  0  0  0999 V2000
    0.0000    0.0000    0.0000 C   0  0  0  0  0  0  0  0  0  0  0  0
    0.0000    0.0000    0.0000 C   0  0  0  0  0  0  0  0  0  0  0  0
    0.0000    0.0000    0.0000 N   0  0  0  0  0  0  0  0  0  0  0  0
    0.0000    0.0000    0.0000 C   0  0  0  0  0  0  0  0  0  0  0  0
    0.0000    0.0000    0.0000 C   0  0  0  0  0  0  0  0  0  0  0  0
    0.0000    0.0000    0.0000 C   0  0  0  0  0  0  0  0  0  0  0  0
    0.0000    0.0000    0.0000 S   0  0  0  0  0  0  0  0  0  0  0  0
    0.0000    0.0000    0.0000 O   0  0  0  0  0  0  0  0  0  0  0  0
    0.0000    0.0000    0.0000 O   0  0  0  0  0  0  0  0  0  0  0  0
    0.0000    0.0000    0.0000 C   0  0  0  0  0  0  0  0  0  0  0  0
    0.0000    0.0000    0.0000 S   0  0  0  0  0  0  0  0  0  0  0  0
    0.0000    0.0000    0.0000 C   0  0  0  0  0  0  0  0  0  0  0  0
    0.0000    0.0000    0.0000 C   0  0  0  0  0  0  0  0  0  0  0  0
    0.0000    0.0000    0.0000 C   0  0  0  0  0  0  0  0  0  0  0  0
    0.0000    0.0000    0.0000 S   0  0  0  0  0  0  0  0  0  0  0  0
    0.0000    0.0000    0.0000 O   0  0  0  0  0  0  0  0  0  0  0  0
    0.0000    0.0000    0.0000 O   0  0  0  0  0  0  0  0  0  0  0  0
    0.0000    0.0000    0.0000 N   0  0  0  0  0  0  0  0  0  0  0  0
  1  2  1  0
  2  3  1  0
  3  4  1  0
  4  5  1  0
  5  6  1  0
  6  7  1  0
  7  8  2  0
  7  9  2  0
  7 10  1  0
 10 11  1  0
 11 12  1  0
 12 13  2  0
 13 14  1  0
 12 15  1  0
 15 16  2  0
 15 17  2  0
 15 18  1  0
 14  4  1  0
 14 10  2  0
M  END
>  <pIC50>  (308) 
8.62

>  <ChEMBL_ID>  (308) 
CHEMBL545239

>  <document_journal>  (308) 
J. Med. Chem.

>  <bao_endpoint>  (308) 
BAO_0000190

>  <potential_duplicate>  (308) 
False

>  <uo_units>  (308) 
UO_0000065

>  <canonical_smiles>  (308) 
Cl.CCNC1CCS(=O)(=O)c2sc(cc12)S(=O)(=O)N

>  <parent_molecule_chembl_id>  (308) 
CHEMBL1193776

>  <assay_type>  (308) 
B

>  <src_id>  (308) 
1

>  <ligand_efficiency>  (308) 
{u'le': u'0.62', u'bei': u'26.21', u'sei': u'5.38', u'lle': u'8.37'}

>  <standard_flag>  (308) 
True

>  <molecule_chembl_id>  (308) 
CHEMBL545239

>  <target_organism>  (308) 
Homo sapiens

>  <standard_units>  (308) 
nM

>  <record_id>  (308) 
150709

>  <document_chembl_id>  (308) 
CHEMBL1124372

>  <bao_format>  (308) 
BAO_0000357

>  <data_validity_description>  (308) 
None

>  <activity_id>  (308) 
1294668

>  <standard_type>  (308) 
IC50

>  <target_chembl_id>  (308) 
CHEMBL205

>  <data_validity_comment>  (308) 
None

>  <published_value>  (308) 
7.3

>  <document_year>  (308) 
1989

>  <target_pref_name>  (308) 
Carbonic anhydrase II

>  <assay_chembl_id>  (308) 
CHEMBL656566

>  <standard_relation>  (308) 
=

>  <assay_description>  (308) 
50% inhibitory concentration against human carbonic anhydrase II (HCA II) after pre-incubation at 3 degree C

>  <published_relation>  (308) 
=

>  <standard_value>  (308) 
7.3

>  <qudt_units>  (308) 
http://www.openphacts.org/units/Nanomolar

>  <target_tax_id>  (308) 
9606

>  <bao_label>  (308) 
single protein format

>  <published_units>  (308) 
nM

>  <pchembl_value>  (308) 
8.14

>  <published_type>  (308) 
I50

>  <activity_comment>  (308) 
None

$$$$

     RDKit          

 20 21  0  0  0  0  0  0  0  0999 V2000
    0.0000    0.0000    0.0000 C   0  0  0  0  0  0  0  0  0  0  0  0
    0.0000    0.0000    0.0000 N   0  0  0  0  0  0  0  0  0  0  0  0
    0.0000    0.0000    0.0000 C   0  0  0  0  0  0  0  0  0  0  0  0
    0.0000    0.0000    0.0000 O   0  0  0  0  0  0  0  0  0  0  0  0
    0.0000    0.0000    0.0000 S   0  0  0  0  0  0  0  0  0  0  0  0
    0.0000    0.0000    0.0000 O   0  0  0  0  0  0  0  0  0  0  0  0
    0.0000    0.0000    0.0000 O   0  0  0  0  0  0  0  0  0  0  0  0
    0.0000    0.0000    0.0000 C   0  0  0  0  0  0  0  0  0  0  0  0
    0.0000    0.0000    0.0000 C   0  0  0  0  0  0  0  0  0  0  0  0
    0.0000    0.0000    0.0000 C   0  0  0  0  0  0  0  0  0  0  0  0
    0.0000    0.0000    0.0000 C   0  0  0  0  0  0  0  0  0  0  0  0
    0.0000    0.0000    0.0000 N   0  0  0  0  0  0  0  0  0  0  0  0
    0.0000    0.0000    0.0000 C   0  0  0  0  0  0  0  0  0  0  0  0
    0.0000    0.0000    0.0000 S   0  0  0  0  0  0  0  0  0  0  0  0
    0.0000    0.0000    0.0000 C   0  0  0  0  0  0  0  0  0  0  0  0
    0.0000    0.0000    0.0000 C   0  0  0  0  0  0  0  0  0  0  0  0
    0.0000    0.0000    0.0000 S   0  0  0  0  0  0  0  0  0  0  0  0
    0.0000    0.0000    0.0000 O   0  0  0  0  0  0  0  0  0  0  0  0
    0.0000    0.0000    0.0000 O   0  0  0  0  0  0  0  0  0  0  0  0
    0.0000    0.0000    0.0000 N   0  0  0  0  0  0  0  0  0  0  0  0
  1  2  1  0
  2  3  1  0
  2  4  1  0
  4  5  1  0
  5  6  2  0
  5  7  2  0
  5  8  1  0
  8  9  2  0
  9 10  1  0
 10 11  2  0
 11 12  1  0
 12 13  2  0
 13 14  1  0
 14 15  1  0
 15 16  2  0
 13 17  1  0
 17 18  2  0
 17 19  2  0
 17 20  1  0
 16  8  1  0
 15 11  1  0
M  END
>  <pIC50>  (309) 
8.92

>  <ChEMBL_ID>  (309) 
CHEMBL84151

>  <document_journal>  (309) 
J. Med. Chem.

>  <bao_endpoint>  (309) 
BAO_0000190

>  <potential_duplicate>  (309) 
False

>  <uo_units>  (309) 
UO_0000065

>  <canonical_smiles>  (309) 
CN(C)OS(=O)(=O)c1ccc2nc(sc2c1)S(=O)(=O)N

>  <parent_molecule_chembl_id>  (309) 
CHEMBL84151

>  <assay_type>  (309) 
B

>  <src_id>  (309) 
1

>  <ligand_efficiency>  (309) 
{u'le': u'0.61', u'bei': u'26.44', u'sei': u'5.42', u'lle': u'8.52'}

>  <standard_flag>  (309) 
True

>  <molecule_chembl_id>  (309) 
CHEMBL84151

>  <target_organism>  (309) 
Homo sapiens

>  <standard_units>  (309) 
nM

>  <record_id>  (309) 
149022

>  <document_chembl_id>  (309) 
CHEMBL1124628

>  <bao_format>  (309) 
BAO_0000357

>  <data_validity_description>  (309) 
None

>  <activity_id>  (309) 
1296003

>  <standard_type>  (309) 
IC50

>  <target_chembl_id>  (309) 
CHEMBL205

>  <data_validity_comment>  (309) 
None

>  <published_value>  (309) 
1.2E-9

>  <document_year>  (309) 
1989

>  <target_pref_name>  (309) 
Carbonic anhydrase II

>  <assay_chembl_id>  (309) 
CHEMBL656574

>  <standard_relation>  (309) 
=

>  <assay_description>  (309) 
In vitro inhibition of human Carbonic Anhydrase II

>  <published_relation>  (309) 
=

>  <standard_value>  (309) 
1.2

>  <qudt_units>  (309) 
http://www.openphacts.org/units/Nanomolar

>  <target_tax_id>  (309) 
9606

>  <bao_label>  (309) 
single protein format

>  <published_units>  (309) 
M

>  <pchembl_value>  (309) 
8.92

>  <published_type>  (309) 
I50

>  <activity_comment>  (309) 
None

$$$$

     RDKit          

 14 15  0  0  0  0  0  0  0  0999 V2000
    0.0000    0.0000    0.0000 N   0  0  0  0  0  0  0  0  0  0  0  0
    0.0000    0.0000    0.0000 S   0  0  0  0  0  0  0  0  0  0  0  0
    0.0000    0.0000    0.0000 O   0  0  0  0  0  0  0  0  0  0  0  0
    0.0000    0.0000    0.0000 O   0  0  0  0  0  0  0  0  0  0  0  0
    0.0000    0.0000    0.0000 C   0  0  0  0  0  0  0  0  0  0  0  0
    0.0000    0.0000    0.0000 N   0  0  0  0  0  0  0  0  0  0  0  0
    0.0000    0.0000    0.0000 C   0  0  0  0  0  0  0  0  0  0  0  0
    0.0000    0.0000    0.0000 C   0  0  0  0  0  0  0  0  0  0  0  0
    0.0000    0.0000    0.0000 C   0  0  0  0  0  0  0  0  0  0  0  0
    0.0000    0.0000    0.0000 O   0  0  0  0  0  0  0  0  0  0  0  0
    0.0000    0.0000    0.0000 C   0  0  0  0  0  0  0  0  0  0  0  0
    0.0000    0.0000    0.0000 C   0  0  0  0  0  0  0  0  0  0  0  0
    0.0000    0.0000    0.0000 C   0  0  0  0  0  0  0  0  0  0  0  0
    0.0000    0.0000    0.0000 S   0  0  0  0  0  0  0  0  0  0  0  0
  1  2  1  0
  2  3  2  0
  2  4  2  0
  2  5  1  0
  5  6  2  0
  6  7  1  0
  7  8  2  0
  8  9  1  0
  9 10  1  0
  9 11  2  0
 11 12  1  0
 12 13  2  0
 13 14  1  0
 14  5  1  0
 13  7  1  0
M  END
>  <pIC50>  (310) 
8.3

>  <ChEMBL_ID>  (310) 
CHEMBL79738

>  <document_journal>  (310) 
J. Med. Chem.

>  <bao_endpoint>  (310) 
BAO_0000190

>  <potential_duplicate>  (310) 
False

>  <uo_units>  (310) 
UO_0000065

>  <canonical_smiles>  (310) 
NS(=O)(=O)c1nc2cc(O)ccc2s1

>  <parent_molecule_chembl_id>  (310) 
CHEMBL79738

>  <assay_type>  (310) 
B

>  <src_id>  (310) 
1

>  <ligand_efficiency>  (310) 
{u'le': u'0.81', u'bei': u'36.05', u'sei': u'6.39', u'lle': u'7.38'}

>  <standard_flag>  (310) 
True

>  <molecule_chembl_id>  (310) 
CHEMBL79738

>  <target_organism>  (310) 
Homo sapiens

>  <standard_units>  (310) 
nM

>  <record_id>  (310) 
149019

>  <document_chembl_id>  (310) 
CHEMBL1124628

>  <bao_format>  (310) 
BAO_0000357

>  <data_validity_description>  (310) 
None

>  <activity_id>  (310) 
1296004

>  <standard_type>  (310) 
IC50

>  <target_chembl_id>  (310) 
CHEMBL205

>  <data_validity_comment>  (310) 
None

>  <published_value>  (310) 
5E-9

>  <document_year>  (310) 
1989

>  <target_pref_name>  (310) 
Carbonic anhydrase II

>  <assay_chembl_id>  (310) 
CHEMBL656574

>  <standard_relation>  (310) 
=

>  <assay_description>  (310) 
In vitro inhibition of human Carbonic Anhydrase II

>  <published_relation>  (310) 
=

>  <standard_value>  (310) 
5

>  <qudt_units>  (310) 
http://www.openphacts.org/units/Nanomolar

>  <target_tax_id>  (310) 
9606

>  <bao_label>  (310) 
single protein format

>  <published_units>  (310) 
M

>  <pchembl_value>  (310) 
8.3

>  <published_type>  (310) 
I50

>  <activity_comment>  (310) 
None

$$$$

     RDKit          

 20 21  0  0  0  0  0  0  0  0999 V2000
    0.0000    0.0000    0.0000 C   0  0  0  0  0  0  0  0  0  0  0  0
    0.0000    0.0000    0.0000 C   0  0  0  0  0  0  0  0  0  0  0  0
    0.0000    0.0000    0.0000 N   0  0  0  0  0  0  0  0  0  0  0  0
    0.0000    0.0000    0.0000 C   0  0  0  0  0  0  0  0  0  0  0  0
    0.0000    0.0000    0.0000 C   0  0  0  0  0  0  0  0  0  0  0  0
    0.0000    0.0000    0.0000 C   0  0  0  0  0  0  0  0  0  0  0  0
    0.0000    0.0000    0.0000 C   0  0  0  0  0  0  0  0  0  0  0  0
    0.0000    0.0000    0.0000 C   0  0  0  0  0  0  0  0  0  0  0  0
    0.0000    0.0000    0.0000 S   0  0  0  0  0  0  0  0  0  0  0  0
    0.0000    0.0000    0.0000 O   0  0  0  0  0  0  0  0  0  0  0  0
    0.0000    0.0000    0.0000 O   0  0  0  0  0  0  0  0  0  0  0  0
    0.0000    0.0000    0.0000 C   0  0  0  0  0  0  0  0  0  0  0  0
    0.0000    0.0000    0.0000 S   0  0  0  0  0  0  0  0  0  0  0  0
    0.0000    0.0000    0.0000 C   0  0  0  0  0  0  0  0  0  0  0  0
    0.0000    0.0000    0.0000 C   0  0  0  0  0  0  0  0  0  0  0  0
    0.0000    0.0000    0.0000 C   0  0  0  0  0  0  0  0  0  0  0  0
    0.0000    0.0000    0.0000 S   0  0  0  0  0  0  0  0  0  0  0  0
    0.0000    0.0000    0.0000 O   0  0  0  0  0  0  0  0  0  0  0  0
    0.0000    0.0000    0.0000 O   0  0  0  0  0  0  0  0  0  0  0  0
    0.0000    0.0000    0.0000 N   0  0  0  0  0  0  0  0  0  0  0  0
  1  2  1  0
  2  3  1  0
  3  4  1  0
  4  5  1  0
  3  6  1  0
  6  7  1  0
  7  8  1  0
  8  9  1  0
  9 10  2  0
  9 11  2  0
  9 12  1  0
 12 13  1  0
 13 14  1  0
 14 15  2  0
 15 16  1  0
 14 17  1  0
 17 18  2  0
 17 19  2  0
 17 20  1  0
 16  6  1  0
 16 12  2  0
M  END
>  <pIC50>  (311) 
7.535

>  <ChEMBL_ID>  (311) 
CHEMBL555182

>  <document_journal>  (311) 
J. Med. Chem.

>  <bao_endpoint>  (311) 
BAO_0000190

>  <potential_duplicate>  (311) 
False

>  <uo_units>  (311) 
UO_0000065

>  <canonical_smiles>  (311) 
Cl.CCN(CC)C1CCS(=O)(=O)c2sc(cc12)S(=O)(=O)N

>  <parent_molecule_chembl_id>  (311) 
CHEMBL1195710

>  <assay_type>  (311) 
B

>  <src_id>  (311) 
1

>  <ligand_efficiency>  (311) 
{u'le': u'0.49', u'bei': u'21.14', u'sei': u'5.02', u'lle': u'6.5'}

>  <standard_flag>  (311) 
True

>  <molecule_chembl_id>  (311) 
CHEMBL555182

>  <target_organism>  (311) 
Homo sapiens

>  <standard_units>  (311) 
nM

>  <record_id>  (311) 
150699

>  <document_chembl_id>  (311) 
CHEMBL1124372

>  <bao_format>  (311) 
BAO_0000357

>  <data_validity_description>  (311) 
None

>  <activity_id>  (311) 
1297542

>  <standard_type>  (311) 
IC50

>  <target_chembl_id>  (311) 
CHEMBL205

>  <data_validity_comment>  (311) 
None

>  <published_value>  (311) 
70

>  <document_year>  (311) 
1989

>  <target_pref_name>  (311) 
Carbonic anhydrase II

>  <assay_chembl_id>  (311) 
CHEMBL656566

>  <standard_relation>  (311) 
=

>  <assay_description>  (311) 
50% inhibitory concentration against human carbonic anhydrase II (HCA II) after pre-incubation at 3 degree C

>  <published_relation>  (311) 
=

>  <standard_value>  (311) 
70

>  <qudt_units>  (311) 
http://www.openphacts.org/units/Nanomolar

>  <target_tax_id>  (311) 
9606

>  <bao_label>  (311) 
single protein format

>  <published_units>  (311) 
nM

>  <pchembl_value>  (311) 
7.16

>  <published_type>  (311) 
I50

>  <activity_comment>  (311) 
None

$$$$

     RDKit          

 22 24  0  0  0  0  0  0  0  0999 V2000
    0.0000    0.0000    0.0000 N   0  0  0  0  0  0  0  0  0  0  0  0
    0.0000    0.0000    0.0000 S   0  0  0  0  0  0  0  0  0  0  0  0
    0.0000    0.0000    0.0000 O   0  0  0  0  0  0  0  0  0  0  0  0
    0.0000    0.0000    0.0000 O   0  0  0  0  0  0  0  0  0  0  0  0
    0.0000    0.0000    0.0000 C   0  0  0  0  0  0  0  0  0  0  0  0
    0.0000    0.0000    0.0000 N   0  0  0  0  0  0  0  0  0  0  0  0
    0.0000    0.0000    0.0000 C   0  0  0  0  0  0  0  0  0  0  0  0
    0.0000    0.0000    0.0000 C   0  0  0  0  0  0  0  0  0  0  0  0
    0.0000    0.0000    0.0000 C   0  0  0  0  0  0  0  0  0  0  0  0
    0.0000    0.0000    0.0000 C   0  0  0  0  0  0  0  0  0  0  0  0
    0.0000    0.0000    0.0000 O   0  0  0  0  0  0  0  0  0  0  0  0
    0.0000    0.0000    0.0000 C   0  0  0  0  0  0  0  0  0  0  0  0
    0.0000    0.0000    0.0000 O   0  0  0  0  0  0  0  0  0  0  0  0
    0.0000    0.0000    0.0000 C   0  0  0  0  0  0  0  0  0  0  0  0
    0.0000    0.0000    0.0000 C   0  0  0  0  0  0  0  0  0  0  0  0
    0.0000    0.0000    0.0000 C   0  0  0  0  0  0  0  0  0  0  0  0
    0.0000    0.0000    0.0000 C   0  0  0  0  0  0  0  0  0  0  0  0
    0.0000    0.0000    0.0000 C   0  0  0  0  0  0  0  0  0  0  0  0
    0.0000    0.0000    0.0000 C   0  0  0  0  0  0  0  0  0  0  0  0
    0.0000    0.0000    0.0000 C   0  0  0  0  0  0  0  0  0  0  0  0
    0.0000    0.0000    0.0000 C   0  0  0  0  0  0  0  0  0  0  0  0
    0.0000    0.0000    0.0000 S   0  0  0  0  0  0  0  0  0  0  0  0
  1  2  1  0
  2  3  2  0
  2  4  2  0
  2  5  1  0
  5  6  2  0
  6  7  1  0
  7  8  2  0
  8  9  1  0
  9 10  2  0
 10 11  1  0
 11 12  1  0
 12 13  2  0
 12 14  1  0
 14 15  2  0
 15 16  1  0
 16 17  2  0
 17 18  1  0
 18 19  2  0
 10 20  1  0
 20 21  2  0
 21 22  1  0
 22  5  1  0
 21  7  1  0
 19 14  1  0
M  END
>  <pIC50>  (312) 
8.1

>  <ChEMBL_ID>  (312) 
CHEMBL82643

>  <document_journal>  (312) 
J. Med. Chem.

>  <bao_endpoint>  (312) 
BAO_0000190

>  <potential_duplicate>  (312) 
False

>  <uo_units>  (312) 
UO_0000065

>  <canonical_smiles>  (312) 
NS(=O)(=O)c1nc2ccc(OC(=O)c3ccccc3)cc2s1

>  <parent_molecule_chembl_id>  (312) 
CHEMBL82643

>  <assay_type>  (312) 
B

>  <src_id>  (312) 
1

>  <ligand_efficiency>  (312) 
{u'le': u'0.5', u'bei': u'24.22', u'sei': u'5.95', u'lle': u'5.51'}

>  <standard_flag>  (312) 
True

>  <molecule_chembl_id>  (312) 
CHEMBL82643

>  <target_organism>  (312) 
Homo sapiens

>  <standard_units>  (312) 
nM

>  <record_id>  (312) 
149036

>  <document_chembl_id>  (312) 
CHEMBL1124628

>  <bao_format>  (312) 
BAO_0000357

>  <data_validity_description>  (312) 
None

>  <activity_id>  (312) 
1297557

>  <standard_type>  (312) 
IC50

>  <target_chembl_id>  (312) 
CHEMBL205

>  <data_validity_comment>  (312) 
None

>  <published_value>  (312) 
8E-9

>  <document_year>  (312) 
1989

>  <target_pref_name>  (312) 
Carbonic anhydrase II

>  <assay_chembl_id>  (312) 
CHEMBL656575

>  <standard_relation>  (312) 
=

>  <assay_description>  (312) 
In vitro inhibitory activity against human Carbonic anhydrase II

>  <published_relation>  (312) 
=

>  <standard_value>  (312) 
8

>  <qudt_units>  (312) 
http://www.openphacts.org/units/Nanomolar

>  <target_tax_id>  (312) 
9606

>  <bao_label>  (312) 
single protein format

>  <published_units>  (312) 
M

>  <pchembl_value>  (312) 
8.1

>  <published_type>  (312) 
I50

>  <activity_comment>  (312) 
None

$$$$

     RDKit          

 21 22  0  0  0  0  0  0  0  0999 V2000
    0.0000    0.0000    0.0000 C   0  0  0  0  0  0  0  0  0  0  0  0
    0.0000    0.0000    0.0000 C   0  0  0  0  0  0  0  0  0  0  0  0
    0.0000    0.0000    0.0000 C   0  0  0  0  0  0  0  0  0  0  0  0
    0.0000    0.0000    0.0000 C   0  0  0  0  0  0  0  0  0  0  0  0
    0.0000    0.0000    0.0000 O   0  0  0  0  0  0  0  0  0  0  0  0
    0.0000    0.0000    0.0000 S   0  0  0  0  0  0  0  0  0  0  0  0
    0.0000    0.0000    0.0000 O   0  0  0  0  0  0  0  0  0  0  0  0
    0.0000    0.0000    0.0000 O   0  0  0  0  0  0  0  0  0  0  0  0
    0.0000    0.0000    0.0000 C   0  0  0  0  0  0  0  0  0  0  0  0
    0.0000    0.0000    0.0000 C   0  0  0  0  0  0  0  0  0  0  0  0
    0.0000    0.0000    0.0000 C   0  0  0  0  0  0  0  0  0  0  0  0
    0.0000    0.0000    0.0000 C   0  0  0  0  0  0  0  0  0  0  0  0
    0.0000    0.0000    0.0000 N   0  0  0  0  0  0  0  0  0  0  0  0
    0.0000    0.0000    0.0000 C   0  0  0  0  0  0  0  0  0  0  0  0
    0.0000    0.0000    0.0000 S   0  0  0  0  0  0  0  0  0  0  0  0
    0.0000    0.0000    0.0000 C   0  0  0  0  0  0  0  0  0  0  0  0
    0.0000    0.0000    0.0000 C   0  0  0  0  0  0  0  0  0  0  0  0
    0.0000    0.0000    0.0000 S   0  0  0  0  0  0  0  0  0  0  0  0
    0.0000    0.0000    0.0000 O   0  0  0  0  0  0  0  0  0  0  0  0
    0.0000    0.0000    0.0000 O   0  0  0  0  0  0  0  0  0  0  0  0
    0.0000    0.0000    0.0000 N   0  0  0  0  0  0  0  0  0  0  0  0
  1  2  1  0
  2  3  1  0
  3  4  1  0
  4  5  1  0
  5  6  1  0
  6  7  2  0
  6  8  2  0
  6  9  1  0
  9 10  2  0
 10 11  1  0
 11 12  2  0
 12 13  1  0
 13 14  2  0
 14 15  1  0
 15 16  1  0
 16 17  2  0
 14 18  1  0
 18 19  2  0
 18 20  2  0
 18 21  1  0
 17  9  1  0
 16 12  1  0
M  END
>  <pIC50>  (313) 
8.75

>  <ChEMBL_ID>  (313) 
CHEMBL311548

>  <document_journal>  (313) 
J. Med. Chem.

>  <bao_endpoint>  (313) 
BAO_0000190

>  <potential_duplicate>  (313) 
False

>  <uo_units>  (313) 
UO_0000065

>  <canonical_smiles>  (313) 
CCCCOS(=O)(=O)c1ccc2nc(sc2c1)S(=O)(=O)N

>  <parent_molecule_chembl_id>  (313) 
CHEMBL311548

>  <assay_type>  (313) 
B

>  <src_id>  (313) 
1

>  <ligand_efficiency>  (313) 
{u'le': u'0.57', u'bei': u'24.95', u'sei': u'5.42', u'lle': u'6.88'}

>  <standard_flag>  (313) 
True

>  <molecule_chembl_id>  (313) 
CHEMBL311548

>  <target_organism>  (313) 
Homo sapiens

>  <standard_units>  (313) 
nM

>  <record_id>  (313) 
149002

>  <document_chembl_id>  (313) 
CHEMBL1124628

>  <bao_format>  (313) 
BAO_0000357

>  <data_validity_description>  (313) 
None

>  <activity_id>  (313) 
1298916

>  <standard_type>  (313) 
IC50

>  <target_chembl_id>  (313) 
CHEMBL205

>  <data_validity_comment>  (313) 
None

>  <published_value>  (313) 
1.8E-9

>  <document_year>  (313) 
1989

>  <target_pref_name>  (313) 
Carbonic anhydrase II

>  <assay_chembl_id>  (313) 
CHEMBL656574

>  <standard_relation>  (313) 
=

>  <assay_description>  (313) 
In vitro inhibition of human Carbonic Anhydrase II

>  <published_relation>  (313) 
=

>  <standard_value>  (313) 
1.8

>  <qudt_units>  (313) 
http://www.openphacts.org/units/Nanomolar

>  <target_tax_id>  (313) 
9606

>  <bao_label>  (313) 
single protein format

>  <published_units>  (313) 
M

>  <pchembl_value>  (313) 
8.75

>  <published_type>  (313) 
I50

>  <activity_comment>  (313) 
None

$$$$

     RDKit          

 21 22  0  0  0  0  0  0  0  0999 V2000
    0.0000    0.0000    0.0000 C   0  0  0  0  0  0  0  0  0  0  0  0
    0.0000    0.0000    0.0000 C   0  0  0  0  0  0  0  0  0  0  0  0
    0.0000    0.0000    0.0000 C   0  0  0  0  0  0  0  0  0  0  0  0
    0.0000    0.0000    0.0000 C   0  0  0  0  0  0  0  0  0  0  0  0
    0.0000    0.0000    0.0000 C   0  0  0  0  0  0  0  0  0  0  0  0
    0.0000    0.0000    0.0000 C   0  0  0  0  0  0  0  0  0  0  0  0
    0.0000    0.0000    0.0000 O   0  0  0  0  0  0  0  0  0  0  0  0
    0.0000    0.0000    0.0000 O   0  0  0  0  0  0  0  0  0  0  0  0
    0.0000    0.0000    0.0000 C   0  0  0  0  0  0  0  0  0  0  0  0
    0.0000    0.0000    0.0000 C   0  0  0  0  0  0  0  0  0  0  0  0
    0.0000    0.0000    0.0000 C   0  0  0  0  0  0  0  0  0  0  0  0
    0.0000    0.0000    0.0000 C   0  0  0  0  0  0  0  0  0  0  0  0
    0.0000    0.0000    0.0000 N   0  0  0  0  0  0  0  0  0  0  0  0
    0.0000    0.0000    0.0000 C   0  0  0  0  0  0  0  0  0  0  0  0
    0.0000    0.0000    0.0000 S   0  0  0  0  0  0  0  0  0  0  0  0
    0.0000    0.0000    0.0000 C   0  0  0  0  0  0  0  0  0  0  0  0
    0.0000    0.0000    0.0000 C   0  0  0  0  0  0  0  0  0  0  0  0
    0.0000    0.0000    0.0000 S   0  0  0  0  0  0  0  0  0  0  0  0
    0.0000    0.0000    0.0000 O   0  0  0  0  0  0  0  0  0  0  0  0
    0.0000    0.0000    0.0000 O   0  0  0  0  0  0  0  0  0  0  0  0
    0.0000    0.0000    0.0000 N   0  0  0  0  0  0  0  0  0  0  0  0
  1  2  1  0
  2  3  1  0
  3  4  1  0
  4  5  1  0
  5  6  1  0
  6  7  2  0
  6  8  1  0
  8  9  1  0
  9 10  2  0
 10 11  1  0
 11 12  2  0
 12 13  1  0
 13 14  2  0
 14 15  1  0
 15 16  1  0
 16 17  2  0
 14 18  1  0
 18 19  2  0
 18 20  2  0
 18 21  1  0
 17  9  1  0
 16 12  1  0
M  END
>  <pIC50>  (314) 
8.4

>  <ChEMBL_ID>  (314) 
CHEMBL442751

>  <document_journal>  (314) 
J. Med. Chem.

>  <bao_endpoint>  (314) 
BAO_0000190

>  <potential_duplicate>  (314) 
False

>  <uo_units>  (314) 
UO_0000065

>  <canonical_smiles>  (314) 
CCCCCC(=O)Oc1ccc2nc(sc2c1)S(=O)(=O)N

>  <parent_molecule_chembl_id>  (314) 
CHEMBL442751

>  <assay_type>  (314) 
B

>  <src_id>  (314) 
1

>  <ligand_efficiency>  (314) 
{u'le': u'0.55', u'bei': u'25.57', u'sei': u'6.18', u'lle': u'5.44'}

>  <standard_flag>  (314) 
True

>  <molecule_chembl_id>  (314) 
CHEMBL442751

>  <target_organism>  (314) 
Homo sapiens

>  <standard_units>  (314) 
nM

>  <record_id>  (314) 
148999

>  <document_chembl_id>  (314) 
CHEMBL1124628

>  <bao_format>  (314) 
BAO_0000357

>  <data_validity_description>  (314) 
None

>  <activity_id>  (314) 
1300161

>  <standard_type>  (314) 
IC50

>  <target_chembl_id>  (314) 
CHEMBL205

>  <data_validity_comment>  (314) 
None

>  <published_value>  (314) 
4E-9

>  <document_year>  (314) 
1989

>  <target_pref_name>  (314) 
Carbonic anhydrase II

>  <assay_chembl_id>  (314) 
CHEMBL656574

>  <standard_relation>  (314) 
=

>  <assay_description>  (314) 
In vitro inhibition of human Carbonic Anhydrase II

>  <published_relation>  (314) 
=

>  <standard_value>  (314) 
4

>  <qudt_units>  (314) 
http://www.openphacts.org/units/Nanomolar

>  <target_tax_id>  (314) 
9606

>  <bao_label>  (314) 
single protein format

>  <published_units>  (314) 
M

>  <pchembl_value>  (314) 
8.4

>  <published_type>  (314) 
I50

>  <activity_comment>  (314) 
None

$$$$

     RDKit          

 22 24  0  0  0  0  0  0  0  0999 V2000
    0.0000    0.0000    0.0000 C   0  0  0  0  0  0  0  0  0  0  0  0
    0.0000    0.0000    0.0000 N   0  0  0  0  0  0  0  0  0  0  0  0
    0.0000    0.0000    0.0000 C   0  0  0  0  0  0  0  0  0  0  0  0
    0.0000    0.0000    0.0000 C   0  0  0  0  0  0  0  0  0  0  0  0
    0.0000    0.0000    0.0000 C   0  0  0  0  0  0  0  0  0  0  0  0
    0.0000    0.0000    0.0000 C   0  0  0  0  0  0  0  0  0  0  0  0
    0.0000    0.0000    0.0000 C   0  0  0  0  0  0  0  0  0  0  0  0
    0.0000    0.0000    0.0000 O   0  0  0  0  0  0  0  0  0  0  0  0
    0.0000    0.0000    0.0000 O   0  0  0  0  0  0  0  0  0  0  0  0
    0.0000    0.0000    0.0000 C   0  0  0  0  0  0  0  0  0  0  0  0
    0.0000    0.0000    0.0000 C   0  0  0  0  0  0  0  0  0  0  0  0
    0.0000    0.0000    0.0000 C   0  0  0  0  0  0  0  0  0  0  0  0
    0.0000    0.0000    0.0000 C   0  0  0  0  0  0  0  0  0  0  0  0
    0.0000    0.0000    0.0000 N   0  0  0  0  0  0  0  0  0  0  0  0
    0.0000    0.0000    0.0000 C   0  0  0  0  0  0  0  0  0  0  0  0
    0.0000    0.0000    0.0000 S   0  0  0  0  0  0  0  0  0  0  0  0
    0.0000    0.0000    0.0000 C   0  0  0  0  0  0  0  0  0  0  0  0
    0.0000    0.0000    0.0000 C   0  0  0  0  0  0  0  0  0  0  0  0
    0.0000    0.0000    0.0000 S   0  0  0  0  0  0  0  0  0  0  0  0
    0.0000    0.0000    0.0000 O   0  0  0  0  0  0  0  0  0  0  0  0
    0.0000    0.0000    0.0000 O   0  0  0  0  0  0  0  0  0  0  0  0
    0.0000    0.0000    0.0000 N   0  0  0  0  0  0  0  0  0  0  0  0
  1  2  1  0
  2  3  1  0
  3  4  2  0
  4  5  1  0
  5  6  2  0
  6  7  1  0
  7  8  2  0
  7  9  1  0
  9 10  1  0
 10 11  2  0
 11 12  1  0
 12 13  2  0
 13 14  1  0
 14 15  2  0
 15 16  1  0
 16 17  1  0
 17 18  2  0
 15 19  1  0
 19 20  2  0
 19 21  2  0
 19 22  1  0
  6  2  1  0
 18 10  1  0
 17 13  1  0
M  END
>  <pIC50>  (315) 
8.54

>  <ChEMBL_ID>  (315) 
CHEMBL84224

>  <document_journal>  (315) 
J. Med. Chem.

>  <bao_endpoint>  (315) 
BAO_0000190

>  <potential_duplicate>  (315) 
False

>  <uo_units>  (315) 
UO_0000065

>  <canonical_smiles>  (315) 
Cn1cccc1C(=O)Oc2ccc3nc(sc3c2)S(=O)(=O)N

>  <parent_molecule_chembl_id>  (315) 
CHEMBL84224

>  <assay_type>  (315) 
B

>  <src_id>  (315) 
1

>  <ligand_efficiency>  (315) 
{u'le': u'0.53', u'bei': u'25.31', u'sei': u'6.06', u'lle': u'6.36'}

>  <standard_flag>  (315) 
True

>  <molecule_chembl_id>  (315) 
CHEMBL84224

>  <target_organism>  (315) 
Homo sapiens

>  <standard_units>  (315) 
nM

>  <record_id>  (315) 
149003

>  <document_chembl_id>  (315) 
CHEMBL1124628

>  <bao_format>  (315) 
BAO_0000357

>  <data_validity_description>  (315) 
None

>  <activity_id>  (315) 
1300165

>  <standard_type>  (315) 
IC50

>  <target_chembl_id>  (315) 
CHEMBL205

>  <data_validity_comment>  (315) 
None

>  <published_value>  (315) 
2.9E-9

>  <document_year>  (315) 
1989

>  <target_pref_name>  (315) 
Carbonic anhydrase II

>  <assay_chembl_id>  (315) 
CHEMBL656574

>  <standard_relation>  (315) 
=

>  <assay_description>  (315) 
In vitro inhibition of human Carbonic Anhydrase II

>  <published_relation>  (315) 
=

>  <standard_value>  (315) 
2.9

>  <qudt_units>  (315) 
http://www.openphacts.org/units/Nanomolar

>  <target_tax_id>  (315) 
9606

>  <bao_label>  (315) 
single protein format

>  <published_units>  (315) 
M

>  <pchembl_value>  (315) 
8.54

>  <published_type>  (315) 
I50

>  <activity_comment>  (315) 
None

$$$$

     RDKit          

 20 21  0  0  0  0  0  0  0  0999 V2000
    0.0000    0.0000    0.0000 C   0  0  0  0  0  0  0  0  0  0  0  0
    0.0000    0.0000    0.0000 C   0  0  0  0  0  0  0  0  0  0  0  0
    0.0000    0.0000    0.0000 C   0  0  0  0  0  0  0  0  0  0  0  0
    0.0000    0.0000    0.0000 C   0  0  0  0  0  0  0  0  0  0  0  0
    0.0000    0.0000    0.0000 N   0  0  0  0  0  0  0  0  0  0  0  0
    0.0000    0.0000    0.0000 C   0  0  0  0  0  0  0  0  0  0  0  0
    0.0000    0.0000    0.0000 C   0  0  0  0  0  0  0  0  0  0  0  0
    0.0000    0.0000    0.0000 C   0  0  0  0  0  0  0  0  0  0  0  0
    0.0000    0.0000    0.0000 S   0  0  0  0  0  0  0  0  0  0  0  0
    0.0000    0.0000    0.0000 O   0  0  0  0  0  0  0  0  0  0  0  0
    0.0000    0.0000    0.0000 O   0  0  0  0  0  0  0  0  0  0  0  0
    0.0000    0.0000    0.0000 C   0  0  0  0  0  0  0  0  0  0  0  0
    0.0000    0.0000    0.0000 S   0  0  0  0  0  0  0  0  0  0  0  0
    0.0000    0.0000    0.0000 C   0  0  0  0  0  0  0  0  0  0  0  0
    0.0000    0.0000    0.0000 C   0  0  0  0  0  0  0  0  0  0  0  0
    0.0000    0.0000    0.0000 C   0  0  0  0  0  0  0  0  0  0  0  0
    0.0000    0.0000    0.0000 S   0  0  0  0  0  0  0  0  0  0  0  0
    0.0000    0.0000    0.0000 O   0  0  0  0  0  0  0  0  0  0  0  0
    0.0000    0.0000    0.0000 O   0  0  0  0  0  0  0  0  0  0  0  0
    0.0000    0.0000    0.0000 N   0  0  0  0  0  0  0  0  0  0  0  0
  1  2  1  0
  2  3  1  0
  3  4  1  0
  4  5  1  0
  5  6  1  0
  6  7  1  0
  7  8  1  0
  8  9  1  0
  9 10  2  0
  9 11  2  0
  9 12  1  0
 12 13  1  0
 13 14  1  0
 14 15  2  0
 15 16  1  0
 14 17  1  0
 17 18  2  0
 17 19  2  0
 17 20  1  0
 16  6  1  0
 16 12  2  0
M  END
>  <pIC50>  (316) 
8.275

>  <ChEMBL_ID>  (316) 
CHEMBL554854

>  <document_journal>  (316) 
J. Med. Chem.

>  <bao_endpoint>  (316) 
BAO_0000190

>  <potential_duplicate>  (316) 
False

>  <uo_units>  (316) 
UO_0000065

>  <canonical_smiles>  (316) 
Cl.CCCCNC1CCS(=O)(=O)c2sc(cc12)S(=O)(=O)N

>  <parent_molecule_chembl_id>  (316) 
CHEMBL1195549

>  <assay_type>  (316) 
B

>  <src_id>  (316) 
1

>  <ligand_efficiency>  (316) 
{u'le': u'0.54', u'bei': u'23.36', u'sei': u'5.22', u'lle': u'7.16'}

>  <standard_flag>  (316) 
True

>  <molecule_chembl_id>  (316) 
CHEMBL554854

>  <target_organism>  (316) 
Homo sapiens

>  <standard_units>  (316) 
nM

>  <record_id>  (316) 
150697

>  <document_chembl_id>  (316) 
CHEMBL1124372

>  <bao_format>  (316) 
BAO_0000357

>  <data_validity_description>  (316) 
None

>  <activity_id>  (316) 
1301634

>  <standard_type>  (316) 
IC50

>  <target_chembl_id>  (316) 
CHEMBL205

>  <data_validity_comment>  (316) 
None

>  <published_value>  (316) 
12.4

>  <document_year>  (316) 
1989

>  <target_pref_name>  (316) 
Carbonic anhydrase II

>  <assay_chembl_id>  (316) 
CHEMBL656566

>  <standard_relation>  (316) 
=

>  <assay_description>  (316) 
50% inhibitory concentration against human carbonic anhydrase II (HCA II) after pre-incubation at 3 degree C

>  <published_relation>  (316) 
=

>  <standard_value>  (316) 
12.4

>  <qudt_units>  (316) 
http://www.openphacts.org/units/Nanomolar

>  <target_tax_id>  (316) 
9606

>  <bao_label>  (316) 
single protein format

>  <published_units>  (316) 
nM

>  <pchembl_value>  (316) 
7.91

>  <published_type>  (316) 
I50

>  <activity_comment>  (316) 
None

$$$$

     RDKit          

 28 30  0  0  0  0  0  0  0  0999 V2000
    0.0000    0.0000    0.0000 C   0  0  0  0  0  0  0  0  0  0  0  0
    0.0000    0.0000    0.0000 C   0  0  0  0  0  0  0  0  0  0  0  0
    0.0000    0.0000    0.0000 N   0  0  0  0  0  0  0  0  0  0  0  0
    0.0000    0.0000    0.0000 C   0  0  0  0  0  0  0  0  0  0  0  0
    0.0000    0.0000    0.0000 C   0  0  0  0  0  0  0  0  0  0  0  0
    0.0000    0.0000    0.0000 C   0  0  0  0  0  0  0  0  0  0  0  0
    0.0000    0.0000    0.0000 C   0  0  0  0  0  0  0  0  0  0  0  0
    0.0000    0.0000    0.0000 C   0  0  0  0  0  0  0  0  0  0  0  0
    0.0000    0.0000    0.0000 C   0  0  0  0  0  0  0  0  0  0  0  0
    0.0000    0.0000    0.0000 C   0  0  0  0  0  0  0  0  0  0  0  0
    0.0000    0.0000    0.0000 C   0  0  0  0  0  0  0  0  0  0  0  0
    0.0000    0.0000    0.0000 C   0  0  0  0  0  0  0  0  0  0  0  0
    0.0000    0.0000    0.0000 C   0  0  0  0  0  0  0  0  0  0  0  0
    0.0000    0.0000    0.0000 O   0  0  0  0  0  0  0  0  0  0  0  0
    0.0000    0.0000    0.0000 O   0  0  0  0  0  0  0  0  0  0  0  0
    0.0000    0.0000    0.0000 C   0  0  0  0  0  0  0  0  0  0  0  0
    0.0000    0.0000    0.0000 C   0  0  0  0  0  0  0  0  0  0  0  0
    0.0000    0.0000    0.0000 C   0  0  0  0  0  0  0  0  0  0  0  0
    0.0000    0.0000    0.0000 C   0  0  0  0  0  0  0  0  0  0  0  0
    0.0000    0.0000    0.0000 N   0  0  0  0  0  0  0  0  0  0  0  0
    0.0000    0.0000    0.0000 C   0  0  0  0  0  0  0  0  0  0  0  0
    0.0000    0.0000    0.0000 S   0  0  0  0  0  0  0  0  0  0  0  0
    0.0000    0.0000    0.0000 C   0  0  0  0  0  0  0  0  0  0  0  0
    0.0000    0.0000    0.0000 C   0  0  0  0  0  0  0  0  0  0  0  0
    0.0000    0.0000    0.0000 S   0  0  0  0  0  0  0  0  0  0  0  0
    0.0000    0.0000    0.0000 O   0  0  0  0  0  0  0  0  0  0  0  0
    0.0000    0.0000    0.0000 O   0  0  0  0  0  0  0  0  0  0  0  0
    0.0000    0.0000    0.0000 N   0  0  0  0  0  0  0  0  0  0  0  0
  1  2  1  0
  2  3  1  0
  3  4  1  0
  4  5  1  0
  3  6  1  0
  6  7  1  0
  7  8  1  0
  8  9  1  0
  9 10  1  0
 10 11  1  0
 11 12  1  0
 10 13  1  0
 13 14  2  0
 13 15  1  0
 15 16  1  0
 16 17  2  0
 17 18  1  0
 18 19  2  0
 19 20  1  0
 20 21  2  0
 21 22  1  0
 22 23  1  0
 23 24  2  0
 21 25  1  0
 25 26  2  0
 25 27  2  0
 25 28  1  0
 12  7  1  0
 24 16  1  0
 23 19  1  0
M  END
>  <pIC50>  (317) 
8.55

>  <ChEMBL_ID>  (317) 
CHEMBL86282

>  <document_journal>  (317) 
J. Med. Chem.

>  <bao_endpoint>  (317) 
BAO_0000190

>  <potential_duplicate>  (317) 
False

>  <uo_units>  (317) 
UO_0000065

>  <canonical_smiles>  (317) 
CCN(CC)CC1CCC(CC1)C(=O)Oc2ccc3nc(sc3c2)S(=O)(=O)N

>  <parent_molecule_chembl_id>  (317) 
CHEMBL86282

>  <assay_type>  (317) 
B

>  <src_id>  (317) 
1

>  <ligand_efficiency>  (317) 
{u'le': u'0.42', u'bei': u'20.1', u'sei': u'6.14', u'lle': u'5.03'}

>  <standard_flag>  (317) 
True

>  <molecule_chembl_id>  (317) 
CHEMBL86282

>  <target_organism>  (317) 
Homo sapiens

>  <standard_units>  (317) 
nM

>  <record_id>  (317) 
149000

>  <document_chembl_id>  (317) 
CHEMBL1124628

>  <bao_format>  (317) 
BAO_0000357

>  <data_validity_description>  (317) 
None

>  <activity_id>  (317) 
1307202

>  <standard_type>  (317) 
IC50

>  <target_chembl_id>  (317) 
CHEMBL205

>  <data_validity_comment>  (317) 
None

>  <published_value>  (317) 
2.8E-9

>  <document_year>  (317) 
1989

>  <target_pref_name>  (317) 
Carbonic anhydrase II

>  <assay_chembl_id>  (317) 
CHEMBL656574

>  <standard_relation>  (317) 
=

>  <assay_description>  (317) 
In vitro inhibition of human Carbonic Anhydrase II

>  <published_relation>  (317) 
=

>  <standard_value>  (317) 
2.8

>  <qudt_units>  (317) 
http://www.openphacts.org/units/Nanomolar

>  <target_tax_id>  (317) 
9606

>  <bao_label>  (317) 
single protein format

>  <published_units>  (317) 
M

>  <pchembl_value>  (317) 
8.55

>  <published_type>  (317) 
I50

>  <activity_comment>  (317) 
None

$$$$

     RDKit          

 21 22  0  0  0  0  0  0  0  0999 V2000
    0.0000    0.0000    0.0000 C   0  0  0  0  0  0  0  0  0  0  0  0
    0.0000    0.0000    0.0000 C   0  0  0  0  0  0  0  0  0  0  0  0
    0.0000    0.0000    0.0000 C   0  0  0  0  0  0  0  0  0  0  0  0
    0.0000    0.0000    0.0000 C   0  0  0  0  0  0  0  0  0  0  0  0
    0.0000    0.0000    0.0000 O   0  0  0  0  0  0  0  0  0  0  0  0
    0.0000    0.0000    0.0000 C   0  0  0  0  0  0  0  0  0  0  0  0
    0.0000    0.0000    0.0000 O   0  0  0  0  0  0  0  0  0  0  0  0
    0.0000    0.0000    0.0000 O   0  0  0  0  0  0  0  0  0  0  0  0
    0.0000    0.0000    0.0000 C   0  0  0  0  0  0  0  0  0  0  0  0
    0.0000    0.0000    0.0000 C   0  0  0  0  0  0  0  0  0  0  0  0
    0.0000    0.0000    0.0000 C   0  0  0  0  0  0  0  0  0  0  0  0
    0.0000    0.0000    0.0000 C   0  0  0  0  0  0  0  0  0  0  0  0
    0.0000    0.0000    0.0000 N   0  0  0  0  0  0  0  0  0  0  0  0
    0.0000    0.0000    0.0000 C   0  0  0  0  0  0  0  0  0  0  0  0
    0.0000    0.0000    0.0000 S   0  0  0  0  0  0  0  0  0  0  0  0
    0.0000    0.0000    0.0000 C   0  0  0  0  0  0  0  0  0  0  0  0
    0.0000    0.0000    0.0000 C   0  0  0  0  0  0  0  0  0  0  0  0
    0.0000    0.0000    0.0000 S   0  0  0  0  0  0  0  0  0  0  0  0
    0.0000    0.0000    0.0000 O   0  0  0  0  0  0  0  0  0  0  0  0
    0.0000    0.0000    0.0000 O   0  0  0  0  0  0  0  0  0  0  0  0
    0.0000    0.0000    0.0000 N   0  0  0  0  0  0  0  0  0  0  0  0
  1  2  1  0
  2  3  1  0
  2  4  1  0
  2  5  1  0
  5  6  1  0
  6  7  2  0
  6  8  1  0
  8  9  1  0
  9 10  2  0
 10 11  1  0
 11 12  2  0
 12 13  1  0
 13 14  2  0
 14 15  1  0
 15 16  1  0
 16 17  2  0
 14 18  1  0
 18 19  2  0
 18 20  2  0
 18 21  1  0
 17  9  1  0
 16 12  1  0
M  END
>  <pIC50>  (318) 
8.0

>  <ChEMBL_ID>  (318) 
CHEMBL310291

>  <document_journal>  (318) 
J. Med. Chem.

>  <bao_endpoint>  (318) 
BAO_0000190

>  <potential_duplicate>  (318) 
False

>  <uo_units>  (318) 
UO_0000065

>  <canonical_smiles>  (318) 
CC(C)(C)OC(=O)Oc1ccc2nc(sc2c1)S(=O)(=O)N

>  <parent_molecule_chembl_id>  (318) 
CHEMBL310291

>  <assay_type>  (318) 
B

>  <src_id>  (318) 
1

>  <ligand_efficiency>  (318) 
{u'le': u'0.52', u'bei': u'24.21', u'sei': u'5.51', u'lle': u'5.5'}

>  <standard_flag>  (318) 
True

>  <molecule_chembl_id>  (318) 
CHEMBL310291

>  <target_organism>  (318) 
Homo sapiens

>  <standard_units>  (318) 
nM

>  <record_id>  (318) 
149016

>  <document_chembl_id>  (318) 
CHEMBL1124628

>  <bao_format>  (318) 
BAO_0000357

>  <data_validity_description>  (318) 
None

>  <activity_id>  (318) 
1307203

>  <standard_type>  (318) 
IC50

>  <target_chembl_id>  (318) 
CHEMBL205

>  <data_validity_comment>  (318) 
None

>  <published_value>  (318) 
1E-8

>  <document_year>  (318) 
1989

>  <target_pref_name>  (318) 
Carbonic anhydrase II

>  <assay_chembl_id>  (318) 
CHEMBL656574

>  <standard_relation>  (318) 
=

>  <assay_description>  (318) 
In vitro inhibition of human Carbonic Anhydrase II

>  <published_relation>  (318) 
=

>  <standard_value>  (318) 
10

>  <qudt_units>  (318) 
http://www.openphacts.org/units/Nanomolar

>  <target_tax_id>  (318) 
9606

>  <bao_label>  (318) 
single protein format

>  <published_units>  (318) 
M

>  <pchembl_value>  (318) 
8

>  <published_type>  (318) 
I50

>  <activity_comment>  (318) 
None

$$$$

     RDKit          

 16 17  0  0  0  0  0  0  0  0999 V2000
    0.0000    0.0000    0.0000 N   0  0  0  0  0  0  0  0  0  0  0  0
    0.0000    0.0000    0.0000 S   0  0  0  0  0  0  0  0  0  0  0  0
    0.0000    0.0000    0.0000 O   0  0  0  0  0  0  0  0  0  0  0  0
    0.0000    0.0000    0.0000 O   0  0  0  0  0  0  0  0  0  0  0  0
    0.0000    0.0000    0.0000 O   0  0  0  0  0  0  0  0  0  0  0  0
    0.0000    0.0000    0.0000 C   0  0  0  0  0  0  0  0  0  0  0  0
    0.0000    0.0000    0.0000 C   0  0  0  0  0  0  0  0  0  0  0  0
    0.0000    0.0000    0.0000 C   0  0  0  0  0  0  0  0  0  0  0  0
    0.0000    0.0000    0.0000 C   0  0  0  0  0  0  0  0  0  0  0  0
    0.0000    0.0000    0.0000 C   0  0  0  0  0  0  0  0  0  0  0  0
    0.0000    0.0000    0.0000 C   0  0  0  0  0  0  0  0  0  0  0  0
    0.0000    0.0000    0.0000 C   0  0  0  0  0  0  0  0  0  0  0  0
    0.0000    0.0000    0.0000 C   0  0  0  0  0  0  0  0  0  0  0  0
    0.0000    0.0000    0.0000 C   0  0  0  0  0  0  0  0  0  0  0  0
    0.0000    0.0000    0.0000 C   0  0  0  0  0  0  0  0  0  0  0  0
    0.0000    0.0000    0.0000 O   0  0  0  0  0  0  0  0  0  0  0  0
  1  2  1  0
  2  3  2  0
  2  4  2  0
  2  5  1  0
  5  6  1  0
  6  7  1  0
  7  8  1  0
  8  9  1  0
  9 10  1  0
 10 11  2  0
 11 12  1  0
 12 13  2  0
 13 14  1  0
 14 15  2  0
 15 16  1  0
 16  7  1  0
 15 10  1  0
M  END
>  <pIC50>  (319) 
6.89

>  <ChEMBL_ID>  (319) 
CHEMBL180475

>  <document_journal>  (319) 
J. Med. Chem.

>  <bao_endpoint>  (319) 
BAO_0000190

>  <potential_duplicate>  (319) 
False

>  <uo_units>  (319) 
UO_0000065

>  <canonical_smiles>  (319) 
NS(=O)(=O)OCC1CCc2ccccc2O1

>  <parent_molecule_chembl_id>  (319) 
CHEMBL180475

>  <assay_type>  (319) 
B

>  <src_id>  (319) 
1

>  <ligand_efficiency>  (319) 
{u'le': u'0.59', u'bei': u'28.31', u'sei': u'7.92', u'lle': u'5.89'}

>  <standard_flag>  (319) 
True

>  <molecule_chembl_id>  (319) 
CHEMBL180475

>  <target_organism>  (319) 
Homo sapiens

>  <standard_units>  (319) 
nM

>  <record_id>  (319) 
360229

>  <document_chembl_id>  (319) 
CHEMBL1142729

>  <bao_format>  (319) 
BAO_0000357

>  <data_validity_description>  (319) 
None

>  <activity_id>  (319) 
1400725

>  <standard_type>  (319) 
IC50

>  <target_chembl_id>  (319) 
CHEMBL205

>  <data_validity_comment>  (319) 
None

>  <published_value>  (319) 
0.13

>  <document_year>  (319) 
2005

>  <target_pref_name>  (319) 
Carbonic anhydrase II

>  <assay_chembl_id>  (319) 
CHEMBL830161

>  <standard_relation>  (319) 
=

>  <assay_description>  (319) 
Inhibitory constant value for Carbonic anhydrase II in human determined in pH-shift assay

>  <published_relation>  (319) 
=

>  <standard_value>  (319) 
130

>  <qudt_units>  (319) 
http://www.openphacts.org/units/Nanomolar

>  <target_tax_id>  (319) 
9606

>  <bao_label>  (319) 
single protein format

>  <published_units>  (319) 
uM

>  <pchembl_value>  (319) 
6.89

>  <published_type>  (319) 
IC50

>  <activity_comment>  (319) 
None

$$$$

     RDKit          

 16 17  0  0  0  0  0  0  0  0999 V2000
    0.0000    0.0000    0.0000 N   0  0  0  0  0  0  0  0  0  0  0  0
    0.0000    0.0000    0.0000 S   0  0  0  0  0  0  0  0  0  0  0  0
    0.0000    0.0000    0.0000 O   0  0  0  0  0  0  0  0  0  0  0  0
    0.0000    0.0000    0.0000 O   0  0  0  0  0  0  0  0  0  0  0  0
    0.0000    0.0000    0.0000 N   0  0  0  0  0  0  0  0  0  0  0  0
    0.0000    0.0000    0.0000 C   0  0  0  0  0  0  0  0  0  0  0  0
    0.0000    0.0000    0.0000 C   0  0  0  0  0  0  0  0  0  0  0  0
    0.0000    0.0000    0.0000 C   0  0  0  0  0  0  0  0  0  0  0  0
    0.0000    0.0000    0.0000 C   0  0  0  0  0  0  0  0  0  0  0  0
    0.0000    0.0000    0.0000 C   0  0  0  0  0  0  0  0  0  0  0  0
    0.0000    0.0000    0.0000 C   0  0  0  0  0  0  0  0  0  0  0  0
    0.0000    0.0000    0.0000 C   0  0  0  0  0  0  0  0  0  0  0  0
    0.0000    0.0000    0.0000 C   0  0  0  0  0  0  0  0  0  0  0  0
    0.0000    0.0000    0.0000 C   0  0  0  0  0  0  0  0  0  0  0  0
    0.0000    0.0000    0.0000 C   0  0  0  0  0  0  0  0  0  0  0  0
    0.0000    0.0000    0.0000 O   0  0  0  0  0  0  0  0  0  0  0  0
  1  2  1  0
  2  3  2  0
  2  4  2  0
  2  5  1  0
  5  6  1  0
  6  7  1  0
  7  8  1  0
  8  9  1  0
  9 10  1  0
 10 11  2  0
 11 12  1  0
 12 13  2  0
 13 14  1  0
 14 15  2  0
 15 16  1  0
 16  7  1  0
 15 10  1  0
M  END
>  <pIC50>  (320) 
4.15

>  <ChEMBL_ID>  (320) 
CHEMBL175644

>  <document_journal>  (320) 
J. Med. Chem.

>  <bao_endpoint>  (320) 
BAO_0000190

>  <potential_duplicate>  (320) 
False

>  <uo_units>  (320) 
UO_0000065

>  <canonical_smiles>  (320) 
NS(=O)(=O)NCC1CCc2ccccc2O1

>  <parent_molecule_chembl_id>  (320) 
CHEMBL175644

>  <assay_type>  (320) 
B

>  <src_id>  (320) 
1

>  <ligand_efficiency>  (320) 
{u'le': u'0.35', u'bei': u'17.12', u'sei': u'4.62', u'lle': u'3.61'}

>  <standard_flag>  (320) 
True

>  <molecule_chembl_id>  (320) 
CHEMBL175644

>  <target_organism>  (320) 
Homo sapiens

>  <standard_units>  (320) 
nM

>  <record_id>  (320) 
360233

>  <document_chembl_id>  (320) 
CHEMBL1142729

>  <bao_format>  (320) 
BAO_0000357

>  <data_validity_description>  (320) 
None

>  <activity_id>  (320) 
1400726

>  <standard_type>  (320) 
IC50

>  <target_chembl_id>  (320) 
CHEMBL205

>  <data_validity_comment>  (320) 
None

>  <published_value>  (320) 
71

>  <document_year>  (320) 
2005

>  <target_pref_name>  (320) 
Carbonic anhydrase II

>  <assay_chembl_id>  (320) 
CHEMBL830161

>  <standard_relation>  (320) 
=

>  <assay_description>  (320) 
Inhibitory constant value for Carbonic anhydrase II in human determined in pH-shift assay

>  <published_relation>  (320) 
=

>  <standard_value>  (320) 
71000

>  <qudt_units>  (320) 
http://www.openphacts.org/units/Nanomolar

>  <target_tax_id>  (320) 
9606

>  <bao_label>  (320) 
single protein format

>  <published_units>  (320) 
uM

>  <pchembl_value>  (320) 
4.15

>  <published_type>  (320) 
IC50

>  <activity_comment>  (320) 
None

$$$$

     RDKit          

 15 16  0  0  0  0  0  0  0  0999 V2000
    0.0000    0.0000    0.0000 N   0  0  0  0  0  0  0  0  0  0  0  0
    0.0000    0.0000    0.0000 S   0  0  0  0  0  0  0  0  0  0  0  0
    0.0000    0.0000    0.0000 O   0  0  0  0  0  0  0  0  0  0  0  0
    0.0000    0.0000    0.0000 O   0  0  0  0  0  0  0  0  0  0  0  0
    0.0000    0.0000    0.0000 O   0  0  0  0  0  0  0  0  0  0  0  0
    0.0000    0.0000    0.0000 C   0  0  0  0  0  0  0  0  0  0  0  0
    0.0000    0.0000    0.0000 C   0  0  0  0  0  0  0  0  0  0  0  0
    0.0000    0.0000    0.0000 O   0  0  0  0  0  0  0  0  0  0  0  0
    0.0000    0.0000    0.0000 C   0  0  0  0  0  0  0  0  0  0  0  0
    0.0000    0.0000    0.0000 C   0  0  0  0  0  0  0  0  0  0  0  0
    0.0000    0.0000    0.0000 C   0  0  0  0  0  0  0  0  0  0  0  0
    0.0000    0.0000    0.0000 C   0  0  0  0  0  0  0  0  0  0  0  0
    0.0000    0.0000    0.0000 C   0  0  0  0  0  0  0  0  0  0  0  0
    0.0000    0.0000    0.0000 C   0  0  0  0  0  0  0  0  0  0  0  0
    0.0000    0.0000    0.0000 O   0  0  0  0  0  0  0  0  0  0  0  0
  1  2  1  0
  2  3  2  0
  2  4  2  0
  2  5  1  0
  5  6  1  0
  6  7  1  0
  7  8  1  0
  8  9  1  0
  9 10  2  0
 10 11  1  0
 11 12  2  0
 12 13  1  0
 13 14  2  0
 14 15  1  0
 15  7  1  0
 14  9  1  0
M  END
>  <pIC50>  (321) 
6.55

>  <ChEMBL_ID>  (321) 
CHEMBL175786

>  <document_journal>  (321) 
J. Med. Chem.

>  <bao_endpoint>  (321) 
BAO_0000190

>  <potential_duplicate>  (321) 
False

>  <uo_units>  (321) 
UO_0000065

>  <canonical_smiles>  (321) 
NS(=O)(=O)OCC1Oc2ccccc2O1

>  <parent_molecule_chembl_id>  (321) 
CHEMBL175786

>  <assay_type>  (321) 
B

>  <src_id>  (321) 
1

>  <ligand_efficiency>  (321) 
{u'le': u'0.6', u'bei': u'28.34', u'sei': u'6.81', u'lle': u'6.11'}

>  <standard_flag>  (321) 
True

>  <molecule_chembl_id>  (321) 
CHEMBL175786

>  <target_organism>  (321) 
Homo sapiens

>  <standard_units>  (321) 
nM

>  <record_id>  (321) 
360234

>  <document_chembl_id>  (321) 
CHEMBL1142729

>  <bao_format>  (321) 
BAO_0000357

>  <data_validity_description>  (321) 
None

>  <activity_id>  (321) 
1400727

>  <standard_type>  (321) 
IC50

>  <target_chembl_id>  (321) 
CHEMBL205

>  <data_validity_comment>  (321) 
None

>  <published_value>  (321) 
0.28

>  <document_year>  (321) 
2005

>  <target_pref_name>  (321) 
Carbonic anhydrase II

>  <assay_chembl_id>  (321) 
CHEMBL830161

>  <standard_relation>  (321) 
=

>  <assay_description>  (321) 
Inhibitory constant value for Carbonic anhydrase II in human determined in pH-shift assay

>  <published_relation>  (321) 
=

>  <standard_value>  (321) 
280

>  <qudt_units>  (321) 
http://www.openphacts.org/units/Nanomolar

>  <target_tax_id>  (321) 
9606

>  <bao_label>  (321) 
single protein format

>  <published_units>  (321) 
uM

>  <pchembl_value>  (321) 
6.55

>  <published_type>  (321) 
IC50

>  <activity_comment>  (321) 
None

$$$$

     RDKit          

 13 13  0  0  0  0  0  0  0  0999 V2000
    0.0000    0.0000    0.0000 N   0  0  0  0  0  0  0  0  0  0  0  0
    0.0000    0.0000    0.0000 S   0  0  0  0  0  0  0  0  0  0  0  0
    0.0000    0.0000    0.0000 O   0  0  0  0  0  0  0  0  0  0  0  0
    0.0000    0.0000    0.0000 O   0  0  0  0  0  0  0  0  0  0  0  0
    0.0000    0.0000    0.0000 C   0  0  0  0  0  0  0  0  0  0  0  0
    0.0000    0.0000    0.0000 C   0  0  0  0  0  0  0  0  0  0  0  0
    0.0000    0.0000    0.0000 C   0  0  0  0  0  0  0  0  0  0  0  0
    0.0000    0.0000    0.0000 C   0  0  0  0  0  0  0  0  0  0  0  0
    0.0000    0.0000    0.0000 C   0  0  0  0  0  0  0  0  0  0  0  0
    0.0000    0.0000    0.0000 C   0  0  0  0  0  0  0  0  0  0  0  0
    0.0000    0.0000    0.0000 N   0  0  0  0  0  0  0  0  0  0  0  0
    0.0000    0.0000    0.0000 O   0  0  0  0  0  0  0  0  0  0  0  0
    0.0000    0.0000    0.0000 O   0  0  0  0  0  0  0  0  0  0  0  0
  1  2  1  0
  2  3  2  0
  2  4  2  0
  2  5  1  0
  5  6  2  0
  6  7  1  0
  7  8  2  0
  8  9  1  0
  9 10  2  0
  9 11  1  0
 11 12  2  0
 11 13  1  0
 10  5  1  0
M  CHG  2  11   1  13  -1
M  END
>  <pIC50>  (322) 
6.39

>  <ChEMBL_ID>  (322) 
CHEMBL367035

>  <document_journal>  (322) 
Bioorg. Med. Chem. Lett.

>  <bao_endpoint>  (322) 
BAO_0000190

>  <potential_duplicate>  (322) 
False

>  <uo_units>  (322) 
UO_0000065

>  <canonical_smiles>  (322) 
NS(=O)(=O)c1cccc(c1)[N+](=O)[O-]

>  <parent_molecule_chembl_id>  (322) 
CHEMBL367035

>  <assay_type>  (322) 
B

>  <src_id>  (322) 
1

>  <ligand_efficiency>  (322) 
{u'le': u'0.67', u'bei': u'31.59', u'sei': u'5.59', u'lle': u'5.96'}

>  <standard_flag>  (322) 
True

>  <molecule_chembl_id>  (322) 
CHEMBL367035

>  <target_organism>  (322) 
Homo sapiens

>  <standard_units>  (322) 
nM

>  <record_id>  (322) 
376937

>  <document_chembl_id>  (322) 
CHEMBL1138639

>  <bao_format>  (322) 
BAO_0000357

>  <data_validity_description>  (322) 
None

>  <activity_id>  (322) 
1453549

>  <standard_type>  (322) 
IC50

>  <target_chembl_id>  (322) 
CHEMBL205

>  <data_validity_comment>  (322) 
None

>  <published_value>  (322) 
0.41

>  <document_year>  (322) 
2004

>  <target_pref_name>  (322) 
Carbonic anhydrase II

>  <assay_chembl_id>  (322) 
CHEMBL828069

>  <standard_relation>  (322) 
=

>  <assay_description>  (322) 
Inhibitory concentration against human cystolic isozyme II of Carbonic anhydrase

>  <published_relation>  (322) 
=

>  <standard_value>  (322) 
410

>  <qudt_units>  (322) 
http://www.openphacts.org/units/Nanomolar

>  <target_tax_id>  (322) 
9606

>  <bao_label>  (322) 
single protein format

>  <published_units>  (322) 
uM

>  <pchembl_value>  (322) 
6.39

>  <published_type>  (322) 
IC50

>  <activity_comment>  (322) 
None

$$$$

     RDKit          

 11 11  0  0  0  0  0  0  0  0999 V2000
    0.0000    0.0000    0.0000 N   0  0  0  0  0  0  0  0  0  0  0  0
    0.0000    0.0000    0.0000 C   0  0  0  0  0  0  0  0  0  0  0  0
    0.0000    0.0000    0.0000 C   0  0  0  0  0  0  0  0  0  0  0  0
    0.0000    0.0000    0.0000 C   0  0  0  0  0  0  0  0  0  0  0  0
    0.0000    0.0000    0.0000 C   0  0  0  0  0  0  0  0  0  0  0  0
    0.0000    0.0000    0.0000 C   0  0  0  0  0  0  0  0  0  0  0  0
    0.0000    0.0000    0.0000 C   0  0  0  0  0  0  0  0  0  0  0  0
    0.0000    0.0000    0.0000 S   0  0  0  0  0  0  0  0  0  0  0  0
    0.0000    0.0000    0.0000 O   0  0  0  0  0  0  0  0  0  0  0  0
    0.0000    0.0000    0.0000 O   0  0  0  0  0  0  0  0  0  0  0  0
    0.0000    0.0000    0.0000 N   0  0  0  0  0  0  0  0  0  0  0  0
  1  2  1  0
  2  3  2  0
  3  4  1  0
  4  5  2  0
  5  6  1  0
  6  7  2  0
  7  8  1  0
  8  9  2  0
  8 10  2  0
  8 11  1  0
  7  2  1  0
M  END
>  <pIC50>  (323) 
5.58

>  <ChEMBL_ID>  (323) 
CHEMBL6705

>  <document_journal>  (323) 
Bioorg. Med. Chem. Lett.

>  <bao_endpoint>  (323) 
BAO_0000190

>  <potential_duplicate>  (323) 
False

>  <uo_units>  (323) 
UO_0000065

>  <canonical_smiles>  (323) 
Nc1ccccc1S(=O)(=O)N

>  <parent_molecule_chembl_id>  (323) 
CHEMBL6705

>  <assay_type>  (323) 
B

>  <src_id>  (323) 
1

>  <ligand_efficiency>  (323) 
{u'le': u'0.69', u'bei': u'32.39', u'sei': u'5.9', u'lle': u'5.79'}

>  <standard_flag>  (323) 
True

>  <molecule_chembl_id>  (323) 
CHEMBL6705

>  <target_organism>  (323) 
Homo sapiens

>  <standard_units>  (323) 
nM

>  <record_id>  (323) 
376938

>  <document_chembl_id>  (323) 
CHEMBL1138639

>  <bao_format>  (323) 
BAO_0000357

>  <data_validity_description>  (323) 
None

>  <activity_id>  (323) 
1453552

>  <standard_type>  (323) 
IC50

>  <target_chembl_id>  (323) 
CHEMBL205

>  <data_validity_comment>  (323) 
None

>  <published_value>  (323) 
2.64

>  <document_year>  (323) 
2004

>  <target_pref_name>  (323) 
Carbonic anhydrase II

>  <assay_chembl_id>  (323) 
CHEMBL828069

>  <standard_relation>  (323) 
=

>  <assay_description>  (323) 
Inhibitory concentration against human cystolic isozyme II of Carbonic anhydrase

>  <published_relation>  (323) 
=

>  <standard_value>  (323) 
2640

>  <qudt_units>  (323) 
http://www.openphacts.org/units/Nanomolar

>  <target_tax_id>  (323) 
9606

>  <bao_label>  (323) 
single protein format

>  <published_units>  (323) 
uM

>  <pchembl_value>  (323) 
5.58

>  <published_type>  (323) 
IC50

>  <activity_comment>  (323) 
None

$$$$

     RDKit          

 12 12  0  0  0  0  0  0  0  0999 V2000
    0.0000    0.0000    0.0000 N   0  0  0  0  0  0  0  0  0  0  0  0
    0.0000    0.0000    0.0000 N   0  0  0  0  0  0  0  0  0  0  0  0
    0.0000    0.0000    0.0000 C   0  0  0  0  0  0  0  0  0  0  0  0
    0.0000    0.0000    0.0000 C   0  0  0  0  0  0  0  0  0  0  0  0
    0.0000    0.0000    0.0000 C   0  0  0  0  0  0  0  0  0  0  0  0
    0.0000    0.0000    0.0000 C   0  0  0  0  0  0  0  0  0  0  0  0
    0.0000    0.0000    0.0000 C   0  0  0  0  0  0  0  0  0  0  0  0
    0.0000    0.0000    0.0000 C   0  0  0  0  0  0  0  0  0  0  0  0
    0.0000    0.0000    0.0000 S   0  0  0  0  0  0  0  0  0  0  0  0
    0.0000    0.0000    0.0000 O   0  0  0  0  0  0  0  0  0  0  0  0
    0.0000    0.0000    0.0000 O   0  0  0  0  0  0  0  0  0  0  0  0
    0.0000    0.0000    0.0000 N   0  0  0  0  0  0  0  0  0  0  0  0
  1  2  1  0
  2  3  1  0
  3  4  2  0
  4  5  1  0
  5  6  2  0
  6  7  1  0
  7  8  2  0
  8  9  1  0
  9 10  2  0
  9 11  2  0
  9 12  1  0
  8  3  1  0
M  END
>  <pIC50>  (324) 
7.1

>  <ChEMBL_ID>  (324) 
CHEMBL176495

>  <document_journal>  (324) 
Bioorg. Med. Chem. Lett.

>  <bao_endpoint>  (324) 
BAO_0000190

>  <potential_duplicate>  (324) 
False

>  <uo_units>  (324) 
UO_0000065

>  <canonical_smiles>  (324) 
NNc1ccccc1S(=O)(=O)N

>  <parent_molecule_chembl_id>  (324) 
CHEMBL176495

>  <assay_type>  (324) 
B

>  <src_id>  (324) 
1

>  <ligand_efficiency>  (324) 
{u'le': u'0.81', u'bei': u'37.91', u'sei': u'6.66', u'lle': u'7.29'}

>  <standard_flag>  (324) 
True

>  <molecule_chembl_id>  (324) 
CHEMBL176495

>  <target_organism>  (324) 
Homo sapiens

>  <standard_units>  (324) 
nM

>  <record_id>  (324) 
376526

>  <document_chembl_id>  (324) 
CHEMBL1138639

>  <bao_format>  (324) 
BAO_0000357

>  <data_validity_description>  (324) 
None

>  <activity_id>  (324) 
1453555

>  <standard_type>  (324) 
IC50

>  <target_chembl_id>  (324) 
CHEMBL205

>  <data_validity_comment>  (324) 
None

>  <published_value>  (324) 
0.08

>  <document_year>  (324) 
2004

>  <target_pref_name>  (324) 
Carbonic anhydrase II

>  <assay_chembl_id>  (324) 
CHEMBL828069

>  <standard_relation>  (324) 
=

>  <assay_description>  (324) 
Inhibitory concentration against human cystolic isozyme II of Carbonic anhydrase

>  <published_relation>  (324) 
=

>  <standard_value>  (324) 
80

>  <qudt_units>  (324) 
http://www.openphacts.org/units/Nanomolar

>  <target_tax_id>  (324) 
9606

>  <bao_label>  (324) 
single protein format

>  <published_units>  (324) 
uM

>  <pchembl_value>  (324) 
7.1

>  <published_type>  (324) 
IC50

>  <activity_comment>  (324) 
None

$$$$

     RDKit          

 14 14  0  0  0  0  0  0  0  0999 V2000
    0.0000    0.0000    0.0000 C   0  0  0  0  0  0  0  0  0  0  0  0
    0.0000    0.0000    0.0000 O   0  0  0  0  0  0  0  0  0  0  0  0
    0.0000    0.0000    0.0000 C   0  0  0  0  0  0  0  0  0  0  0  0
    0.0000    0.0000    0.0000 O   0  0  0  0  0  0  0  0  0  0  0  0
    0.0000    0.0000    0.0000 C   0  0  0  0  0  0  0  0  0  0  0  0
    0.0000    0.0000    0.0000 C   0  0  0  0  0  0  0  0  0  0  0  0
    0.0000    0.0000    0.0000 C   0  0  0  0  0  0  0  0  0  0  0  0
    0.0000    0.0000    0.0000 C   0  0  0  0  0  0  0  0  0  0  0  0
    0.0000    0.0000    0.0000 C   0  0  0  0  0  0  0  0  0  0  0  0
    0.0000    0.0000    0.0000 C   0  0  0  0  0  0  0  0  0  0  0  0
    0.0000    0.0000    0.0000 S   0  0  0  0  0  0  0  0  0  0  0  0
    0.0000    0.0000    0.0000 O   0  0  0  0  0  0  0  0  0  0  0  0
    0.0000    0.0000    0.0000 O   0  0  0  0  0  0  0  0  0  0  0  0
    0.0000    0.0000    0.0000 N   0  0  0  0  0  0  0  0  0  0  0  0
  1  2  1  0
  2  3  1  0
  3  4  2  0
  3  5  1  0
  5  6  2  0
  6  7  1  0
  7  8  2  0
  8  9  1  0
  9 10  2  0
 10 11  1  0
 11 12  2  0
 11 13  2  0
 11 14  1  0
 10  5  1  0
M  END
>  <pIC50>  (325) 
4.13

>  <ChEMBL_ID>  (325) 
CHEMBL148680

>  <document_journal>  (325) 
Bioorg. Med. Chem. Lett.

>  <bao_endpoint>  (325) 
BAO_0000190

>  <potential_duplicate>  (325) 
False

>  <uo_units>  (325) 
UO_0000065

>  <canonical_smiles>  (325) 
COC(=O)c1ccccc1S(=O)(=O)N

>  <parent_molecule_chembl_id>  (325) 
CHEMBL148680

>  <assay_type>  (325) 
B

>  <src_id>  (325) 
1

>  <ligand_efficiency>  (325) 
{u'le': u'0.4', u'bei': u'19.2', u'sei': u'4.36', u'lle': u'3.74'}

>  <standard_flag>  (325) 
True

>  <molecule_chembl_id>  (325) 
CHEMBL148680

>  <target_organism>  (325) 
Homo sapiens

>  <standard_units>  (325) 
nM

>  <record_id>  (325) 
376527

>  <document_chembl_id>  (325) 
CHEMBL1138639

>  <bao_format>  (325) 
BAO_0000357

>  <data_validity_description>  (325) 
None

>  <activity_id>  (325) 
1456008

>  <standard_type>  (325) 
IC50

>  <target_chembl_id>  (325) 
CHEMBL205

>  <data_validity_comment>  (325) 
None

>  <published_value>  (325) 
73.9

>  <document_year>  (325) 
2004

>  <target_pref_name>  (325) 
Carbonic anhydrase II

>  <assay_chembl_id>  (325) 
CHEMBL828069

>  <standard_relation>  (325) 
=

>  <assay_description>  (325) 
Inhibitory concentration against human cystolic isozyme II of Carbonic anhydrase

>  <published_relation>  (325) 
=

>  <standard_value>  (325) 
73900

>  <qudt_units>  (325) 
http://www.openphacts.org/units/Nanomolar

>  <target_tax_id>  (325) 
9606

>  <bao_label>  (325) 
single protein format

>  <published_units>  (325) 
uM

>  <pchembl_value>  (325) 
4.13

>  <published_type>  (325) 
IC50

>  <activity_comment>  (325) 
None

$$$$

     RDKit          

 13 13  0  0  0  0  0  0  0  0999 V2000
    0.0000    0.0000    0.0000 N   0  0  0  0  0  0  0  0  0  0  0  0
    0.0000    0.0000    0.0000 S   0  0  0  0  0  0  0  0  0  0  0  0
    0.0000    0.0000    0.0000 O   0  0  0  0  0  0  0  0  0  0  0  0
    0.0000    0.0000    0.0000 O   0  0  0  0  0  0  0  0  0  0  0  0
    0.0000    0.0000    0.0000 C   0  0  0  0  0  0  0  0  0  0  0  0
    0.0000    0.0000    0.0000 C   0  0  0  0  0  0  0  0  0  0  0  0
    0.0000    0.0000    0.0000 C   0  0  0  0  0  0  0  0  0  0  0  0
    0.0000    0.0000    0.0000 C   0  0  0  0  0  0  0  0  0  0  0  0
    0.0000    0.0000    0.0000 S   0  0  0  0  0  0  0  0  0  0  0  0
    0.0000    0.0000    0.0000 C   0  0  0  0  0  0  0  0  0  0  0  0
    0.0000    0.0000    0.0000 N   0  0  0  0  0  0  0  0  0  0  0  0
    0.0000    0.0000    0.0000 C   0  0  0  0  0  0  0  0  0  0  0  0
    0.0000    0.0000    0.0000 C   0  0  0  0  0  0  0  0  0  0  0  0
  1  2  1  0
  2  3  2  0
  2  4  2  0
  2  5  1  0
  5  6  2  0
  6  7  1  0
  7  8  2  0
  8  9  1  0
  9 10  1  0
 10 11  3  0
  8 12  1  0
 12 13  2  0
 13  5  1  0
M  END
>  <pIC50>  (326) 
5.44

>  <ChEMBL_ID>  (326) 
CHEMBL363086

>  <document_journal>  (326) 
Bioorg. Med. Chem. Lett.

>  <bao_endpoint>  (326) 
BAO_0000190

>  <potential_duplicate>  (326) 
False

>  <uo_units>  (326) 
UO_0000065

>  <canonical_smiles>  (326) 
NS(=O)(=O)c1ccc(SC#N)cc1

>  <parent_molecule_chembl_id>  (326) 
CHEMBL363086

>  <assay_type>  (326) 
B

>  <src_id>  (326) 
1

>  <ligand_efficiency>  (326) 
{u'le': u'0.57', u'bei': u'25.41', u'sei': u'4.63', u'lle': u'4.43'}

>  <standard_flag>  (326) 
True

>  <molecule_chembl_id>  (326) 
CHEMBL363086

>  <target_organism>  (326) 
Homo sapiens

>  <standard_units>  (326) 
nM

>  <record_id>  (326) 
376528

>  <document_chembl_id>  (326) 
CHEMBL1138639

>  <bao_format>  (326) 
BAO_0000357

>  <data_validity_description>  (326) 
None

>  <activity_id>  (326) 
1456118

>  <standard_type>  (326) 
IC50

>  <target_chembl_id>  (326) 
CHEMBL205

>  <data_validity_comment>  (326) 
None

>  <published_value>  (326) 
3.6

>  <document_year>  (326) 
2004

>  <target_pref_name>  (326) 
Carbonic anhydrase II

>  <assay_chembl_id>  (326) 
CHEMBL828069

>  <standard_relation>  (326) 
=

>  <assay_description>  (326) 
Inhibitory concentration against human cystolic isozyme II of Carbonic anhydrase

>  <published_relation>  (326) 
=

>  <standard_value>  (326) 
3600

>  <qudt_units>  (326) 
http://www.openphacts.org/units/Nanomolar

>  <target_tax_id>  (326) 
9606

>  <bao_label>  (326) 
single protein format

>  <published_units>  (326) 
uM

>  <pchembl_value>  (326) 
5.44

>  <published_type>  (326) 
IC50

>  <activity_comment>  (326) 
None

$$$$

     RDKit          

 13 13  0  0  0  0  0  0  0  0999 V2000
    0.0000    0.0000    0.0000 N   0  0  0  0  0  0  0  0  0  0  0  0
    0.0000    0.0000    0.0000 S   0  0  0  0  0  0  0  0  0  0  0  0
    0.0000    0.0000    0.0000 O   0  0  0  0  0  0  0  0  0  0  0  0
    0.0000    0.0000    0.0000 O   0  0  0  0  0  0  0  0  0  0  0  0
    0.0000    0.0000    0.0000 C   0  0  0  0  0  0  0  0  0  0  0  0
    0.0000    0.0000    0.0000 C   0  0  0  0  0  0  0  0  0  0  0  0
    0.0000    0.0000    0.0000 C   0  0  0  0  0  0  0  0  0  0  0  0
    0.0000    0.0000    0.0000 C   0  0  0  0  0  0  0  0  0  0  0  0
    0.0000    0.0000    0.0000 C   0  0  0  0  0  0  0  0  0  0  0  0
    0.0000    0.0000    0.0000 C   0  0  0  0  0  0  0  0  0  0  0  0
    0.0000    0.0000    0.0000 N   0  0  0  0  0  0  0  0  0  0  0  0
    0.0000    0.0000    0.0000 O   0  0  0  0  0  0  0  0  0  0  0  0
    0.0000    0.0000    0.0000 O   0  0  0  0  0  0  0  0  0  0  0  0
  1  2  1  0
  2  3  2  0
  2  4  2  0
  2  5  1  0
  5  6  2  0
  6  7  1  0
  7  8  2  0
  8  9  1  0
  9 10  2  0
  8 11  1  0
 11 12  2  0
 11 13  1  0
 10  5  1  0
M  CHG  2  11   1  13  -1
M  END
>  <pIC50>  (327) 
6.4

>  <ChEMBL_ID>  (327) 
CHEMBL282157

>  <document_journal>  (327) 
Bioorg. Med. Chem. Lett.

>  <bao_endpoint>  (327) 
BAO_0000190

>  <potential_duplicate>  (327) 
False

>  <uo_units>  (327) 
UO_0000065

>  <canonical_smiles>  (327) 
NS(=O)(=O)c1ccc(cc1)[N+](=O)[O-]

>  <parent_molecule_chembl_id>  (327) 
CHEMBL282157

>  <assay_type>  (327) 
B

>  <src_id>  (327) 
1

>  <ligand_efficiency>  (327) 
{u'le': u'0.67', u'bei': u'31.64', u'sei': u'5.6', u'lle': u'5.97'}

>  <standard_flag>  (327) 
True

>  <molecule_chembl_id>  (327) 
CHEMBL282157

>  <target_organism>  (327) 
Homo sapiens

>  <standard_units>  (327) 
nM

>  <record_id>  (327) 
376559

>  <document_chembl_id>  (327) 
CHEMBL1138639

>  <bao_format>  (327) 
BAO_0000357

>  <data_validity_description>  (327) 
None

>  <activity_id>  (327) 
1456121

>  <standard_type>  (327) 
IC50

>  <target_chembl_id>  (327) 
CHEMBL205

>  <data_validity_comment>  (327) 
None

>  <published_value>  (327) 
0.4

>  <document_year>  (327) 
2004

>  <target_pref_name>  (327) 
Carbonic anhydrase II

>  <assay_chembl_id>  (327) 
CHEMBL828069

>  <standard_relation>  (327) 
=

>  <assay_description>  (327) 
Inhibitory concentration against human cystolic isozyme II of Carbonic anhydrase

>  <published_relation>  (327) 
=

>  <standard_value>  (327) 
400

>  <qudt_units>  (327) 
http://www.openphacts.org/units/Nanomolar

>  <target_tax_id>  (327) 
9606

>  <bao_label>  (327) 
single protein format

>  <published_units>  (327) 
uM

>  <pchembl_value>  (327) 
6.4

>  <published_type>  (327) 
IC50

>  <activity_comment>  (327) 
None

$$$$

     RDKit          

 12 12  0  0  0  0  0  0  0  0999 V2000
    0.0000    0.0000    0.0000 N   0  0  0  0  0  0  0  0  0  0  0  0
    0.0000    0.0000    0.0000 S   0  0  0  0  0  0  0  0  0  0  0  0
    0.0000    0.0000    0.0000 O   0  0  0  0  0  0  0  0  0  0  0  0
    0.0000    0.0000    0.0000 O   0  0  0  0  0  0  0  0  0  0  0  0
    0.0000    0.0000    0.0000 C   0  0  0  0  0  0  0  0  0  0  0  0
    0.0000    0.0000    0.0000 C   0  0  0  0  0  0  0  0  0  0  0  0
    0.0000    0.0000    0.0000 C   0  0  0  0  0  0  0  0  0  0  0  0
    0.0000    0.0000    0.0000 C   0  0  0  0  0  0  0  0  0  0  0  0
    0.0000    0.0000    0.0000 C   0  0  0  0  0  0  0  0  0  0  0  0
    0.0000    0.0000    0.0000 O   0  0  0  0  0  0  0  0  0  0  0  0
    0.0000    0.0000    0.0000 C   0  0  0  0  0  0  0  0  0  0  0  0
    0.0000    0.0000    0.0000 C   0  0  0  0  0  0  0  0  0  0  0  0
  1  2  1  0
  2  3  2  0
  2  4  2  0
  2  5  1  0
  5  6  2  0
  6  7  1  0
  7  8  2  0
  8  9  1  0
  9 10  1  0
  8 11  1  0
 11 12  2  0
 12  5  1  0
M  END
>  <pIC50>  (328) 
5.24

>  <ChEMBL_ID>  (328) 
CHEMBL6919

>  <document_journal>  (328) 
Bioorg. Med. Chem. Lett.

>  <bao_endpoint>  (328) 
BAO_0000190

>  <potential_duplicate>  (328) 
False

>  <uo_units>  (328) 
UO_0000065

>  <canonical_smiles>  (328) 
NS(=O)(=O)c1ccc(CO)cc1

>  <parent_molecule_chembl_id>  (328) 
CHEMBL6919

>  <assay_type>  (328) 
B

>  <src_id>  (328) 
1

>  <ligand_efficiency>  (328) 
{u'le': u'0.6', u'bei': u'28.01', u'sei': u'5.91', u'lle': u'5.31'}

>  <standard_flag>  (328) 
True

>  <molecule_chembl_id>  (328) 
CHEMBL6919

>  <target_organism>  (328) 
Homo sapiens

>  <standard_units>  (328) 
nM

>  <record_id>  (328) 
376560

>  <document_chembl_id>  (328) 
CHEMBL1138639

>  <bao_format>  (328) 
BAO_0000357

>  <data_validity_description>  (328) 
None

>  <activity_id>  (328) 
1456124

>  <standard_type>  (328) 
IC50

>  <target_chembl_id>  (328) 
CHEMBL205

>  <data_validity_comment>  (328) 
None

>  <published_value>  (328) 
5.7

>  <document_year>  (328) 
2004

>  <target_pref_name>  (328) 
Carbonic anhydrase II

>  <assay_chembl_id>  (328) 
CHEMBL828069

>  <standard_relation>  (328) 
=

>  <assay_description>  (328) 
Inhibitory concentration against human cystolic isozyme II of Carbonic anhydrase

>  <published_relation>  (328) 
=

>  <standard_value>  (328) 
5700

>  <qudt_units>  (328) 
http://www.openphacts.org/units/Nanomolar

>  <target_tax_id>  (328) 
9606

>  <bao_label>  (328) 
single protein format

>  <published_units>  (328) 
uM

>  <pchembl_value>  (328) 
5.24

>  <published_type>  (328) 
IC50

>  <activity_comment>  (328) 
None

$$$$

     RDKit          

 11 11  0  0  0  0  0  0  0  0999 V2000
    0.0000    0.0000    0.0000 C   0  0  0  0  0  0  0  0  0  0  0  0
    0.0000    0.0000    0.0000 C   0  0  0  0  0  0  0  0  0  0  0  0
    0.0000    0.0000    0.0000 C   0  0  0  0  0  0  0  0  0  0  0  0
    0.0000    0.0000    0.0000 C   0  0  0  0  0  0  0  0  0  0  0  0
    0.0000    0.0000    0.0000 C   0  0  0  0  0  0  0  0  0  0  0  0
    0.0000    0.0000    0.0000 C   0  0  0  0  0  0  0  0  0  0  0  0
    0.0000    0.0000    0.0000 C   0  0  0  0  0  0  0  0  0  0  0  0
    0.0000    0.0000    0.0000 S   0  0  0  0  0  0  0  0  0  0  0  0
    0.0000    0.0000    0.0000 O   0  0  0  0  0  0  0  0  0  0  0  0
    0.0000    0.0000    0.0000 O   0  0  0  0  0  0  0  0  0  0  0  0
    0.0000    0.0000    0.0000 N   0  0  0  0  0  0  0  0  0  0  0  0
  1  2  1  0
  2  3  2  0
  3  4  1  0
  4  5  2  0
  5  6  1  0
  6  7  2  0
  5  8  1  0
  8  9  2  0
  8 10  2  0
  8 11  1  0
  7  2  1  0
M  END
>  <pIC50>  (329) 
6.24

>  <ChEMBL_ID>  (329) 
CHEMBL574

>  <document_journal>  (329) 
Bioorg. Med. Chem. Lett.

>  <bao_endpoint>  (329) 
BAO_0000190

>  <potential_duplicate>  (329) 
False

>  <uo_units>  (329) 
UO_0000065

>  <canonical_smiles>  (329) 
Cc1ccc(cc1)S(=O)(=O)N

>  <parent_molecule_chembl_id>  (329) 
CHEMBL574

>  <assay_type>  (329) 
B

>  <src_id>  (329) 
1

>  <ligand_efficiency>  (329) 
{u'le': u'0.77', u'bei': u'36.42', u'sei': u'9.1', u'lle': u'5.22'}

>  <standard_flag>  (329) 
True

>  <molecule_chembl_id>  (329) 
CHEMBL574

>  <target_organism>  (329) 
Homo sapiens

>  <standard_units>  (329) 
nM

>  <record_id>  (329) 
376561

>  <document_chembl_id>  (329) 
CHEMBL1138639

>  <bao_format>  (329) 
BAO_0000357

>  <data_validity_description>  (329) 
None

>  <activity_id>  (329) 
1456127

>  <standard_type>  (329) 
IC50

>  <target_chembl_id>  (329) 
CHEMBL205

>  <data_validity_comment>  (329) 
None

>  <published_value>  (329) 
0.58

>  <document_year>  (329) 
2004

>  <target_pref_name>  (329) 
Carbonic anhydrase II

>  <assay_chembl_id>  (329) 
CHEMBL828069

>  <standard_relation>  (329) 
=

>  <assay_description>  (329) 
Inhibitory concentration against human cystolic isozyme II of Carbonic anhydrase

>  <published_relation>  (329) 
=

>  <standard_value>  (329) 
580

>  <qudt_units>  (329) 
http://www.openphacts.org/units/Nanomolar

>  <target_tax_id>  (329) 
9606

>  <bao_label>  (329) 
single protein format

>  <published_units>  (329) 
uM

>  <pchembl_value>  (329) 
6.24

>  <published_type>  (329) 
IC50

>  <activity_comment>  (329) 
None

$$$$

     RDKit          

 13 13  0  0  0  0  0  0  0  0999 V2000
    0.0000    0.0000    0.0000 N   0  0  0  0  0  0  0  0  0  0  0  0
    0.0000    0.0000    0.0000 S   0  0  0  0  0  0  0  0  0  0  0  0
    0.0000    0.0000    0.0000 O   0  0  0  0  0  0  0  0  0  0  0  0
    0.0000    0.0000    0.0000 O   0  0  0  0  0  0  0  0  0  0  0  0
    0.0000    0.0000    0.0000 C   0  0  0  0  0  0  0  0  0  0  0  0
    0.0000    0.0000    0.0000 C   0  0  0  0  0  0  0  0  0  0  0  0
    0.0000    0.0000    0.0000 C   0  0  0  0  0  0  0  0  0  0  0  0
    0.0000    0.0000    0.0000 C   0  0  0  0  0  0  0  0  0  0  0  0
    0.0000    0.0000    0.0000 C   0  0  0  0  0  0  0  0  0  0  0  0
    0.0000    0.0000    0.0000 C   0  0  0  0  0  0  0  0  0  0  0  0
    0.0000    0.0000    0.0000 C   0  0  0  0  0  0  0  0  0  0  0  0
    0.0000    0.0000    0.0000 O   0  0  0  0  0  0  0  0  0  0  0  0
    0.0000    0.0000    0.0000 O   0  0  0  0  0  0  0  0  0  0  0  0
  1  2  1  0
  2  3  2  0
  2  4  2  0
  2  5  1  0
  5  6  2  0
  6  7  1  0
  7  8  2  0
  8  9  1  0
  9 10  2  0
  8 11  1  0
 11 12  2  0
 11 13  1  0
 10  5  1  0
M  END
>  <pIC50>  (330) 
6.06

>  <ChEMBL_ID>  (330) 
CHEMBL414

>  <document_journal>  (330) 
Bioorg. Med. Chem. Lett.

>  <bao_endpoint>  (330) 
BAO_0000190

>  <potential_duplicate>  (330) 
False

>  <uo_units>  (330) 
UO_0000065

>  <canonical_smiles>  (330) 
NS(=O)(=O)c1ccc(cc1)C(=O)O

>  <parent_molecule_chembl_id>  (330) 
CHEMBL414

>  <assay_type>  (330) 
B

>  <src_id>  (330) 
1

>  <ligand_efficiency>  (330) 
{u'le': u'0.64', u'bei': u'30.1', u'sei': u'5.72', u'lle': u'5.9'}

>  <standard_flag>  (330) 
True

>  <molecule_chembl_id>  (330) 
CHEMBL414

>  <target_organism>  (330) 
Homo sapiens

>  <standard_units>  (330) 
nM

>  <record_id>  (330) 
376588

>  <document_chembl_id>  (330) 
CHEMBL1138639

>  <bao_format>  (330) 
BAO_0000357

>  <data_validity_description>  (330) 
None

>  <activity_id>  (330) 
1456130

>  <standard_type>  (330) 
IC50

>  <target_chembl_id>  (330) 
CHEMBL205

>  <data_validity_comment>  (330) 
None

>  <published_value>  (330) 
0.88

>  <document_year>  (330) 
2004

>  <target_pref_name>  (330) 
Carbonic anhydrase II

>  <assay_chembl_id>  (330) 
CHEMBL828069

>  <standard_relation>  (330) 
=

>  <assay_description>  (330) 
Inhibitory concentration against human cystolic isozyme II of Carbonic anhydrase

>  <published_relation>  (330) 
=

>  <standard_value>  (330) 
880

>  <qudt_units>  (330) 
http://www.openphacts.org/units/Nanomolar

>  <target_tax_id>  (330) 
9606

>  <bao_label>  (330) 
single protein format

>  <published_units>  (330) 
uM

>  <pchembl_value>  (330) 
6.06

>  <published_type>  (330) 
IC50

>  <activity_comment>  (330) 
None

$$$$

     RDKit          

 12 12  0  0  0  0  0  0  0  0999 V2000
    0.0000    0.0000    0.0000 N   0  0  0  0  0  0  0  0  0  0  0  0
    0.0000    0.0000    0.0000 C   0  0  0  0  0  0  0  0  0  0  0  0
    0.0000    0.0000    0.0000 C   0  0  0  0  0  0  0  0  0  0  0  0
    0.0000    0.0000    0.0000 C   0  0  0  0  0  0  0  0  0  0  0  0
    0.0000    0.0000    0.0000 C   0  0  0  0  0  0  0  0  0  0  0  0
    0.0000    0.0000    0.0000 C   0  0  0  0  0  0  0  0  0  0  0  0
    0.0000    0.0000    0.0000 C   0  0  0  0  0  0  0  0  0  0  0  0
    0.0000    0.0000    0.0000 F   0  0  0  0  0  0  0  0  0  0  0  0
    0.0000    0.0000    0.0000 S   0  0  0  0  0  0  0  0  0  0  0  0
    0.0000    0.0000    0.0000 O   0  0  0  0  0  0  0  0  0  0  0  0
    0.0000    0.0000    0.0000 O   0  0  0  0  0  0  0  0  0  0  0  0
    0.0000    0.0000    0.0000 N   0  0  0  0  0  0  0  0  0  0  0  0
  1  2  1  0
  2  3  2  0
  3  4  1  0
  4  5  2  0
  5  6  1  0
  6  7  2  0
  7  8  1  0
  5  9  1  0
  9 10  2  0
  9 11  2  0
  9 12  1  0
  7  2  1  0
M  END
>  <pIC50>  (331) 
5.52

>  <ChEMBL_ID>  (331) 
CHEMBL6853

>  <document_journal>  (331) 
Bioorg. Med. Chem. Lett.

>  <bao_endpoint>  (331) 
BAO_0000190

>  <potential_duplicate>  (331) 
False

>  <uo_units>  (331) 
UO_0000065

>  <canonical_smiles>  (331) 
Nc1ccc(cc1F)S(=O)(=O)N

>  <parent_molecule_chembl_id>  (331) 
CHEMBL6853

>  <assay_type>  (331) 
B

>  <src_id>  (331) 
1

>  <ligand_efficiency>  (331) 
{u'le': u'0.63', u'bei': u'29.04', u'sei': u'5.84', u'lle': u'5.53'}

>  <standard_flag>  (331) 
True

>  <molecule_chembl_id>  (331) 
CHEMBL6853

>  <target_organism>  (331) 
Homo sapiens

>  <standard_units>  (331) 
nM

>  <record_id>  (331) 
376589

>  <document_chembl_id>  (331) 
CHEMBL1138639

>  <bao_format>  (331) 
BAO_0000357

>  <data_validity_description>  (331) 
None

>  <activity_id>  (331) 
1456133

>  <standard_type>  (331) 
IC50

>  <target_chembl_id>  (331) 
CHEMBL205

>  <data_validity_comment>  (331) 
None

>  <published_value>  (331) 
3

>  <document_year>  (331) 
2004

>  <target_pref_name>  (331) 
Carbonic anhydrase II

>  <assay_chembl_id>  (331) 
CHEMBL828069

>  <standard_relation>  (331) 
=

>  <assay_description>  (331) 
Inhibitory concentration against human cystolic isozyme II of Carbonic anhydrase

>  <published_relation>  (331) 
=

>  <standard_value>  (331) 
3000

>  <qudt_units>  (331) 
http://www.openphacts.org/units/Nanomolar

>  <target_tax_id>  (331) 
9606

>  <bao_label>  (331) 
single protein format

>  <published_units>  (331) 
uM

>  <pchembl_value>  (331) 
5.52

>  <published_type>  (331) 
IC50

>  <activity_comment>  (331) 
None

$$$$

     RDKit          

 12 12  0  0  0  0  0  0  0  0999 V2000
    0.0000    0.0000    0.0000 N   0  0  0  0  0  0  0  0  0  0  0  0
    0.0000    0.0000    0.0000 C   0  0  0  0  0  0  0  0  0  0  0  0
    0.0000    0.0000    0.0000 C   0  0  0  0  0  0  0  0  0  0  0  0
    0.0000    0.0000    0.0000 C   0  0  0  0  0  0  0  0  0  0  0  0
    0.0000    0.0000    0.0000 C   0  0  0  0  0  0  0  0  0  0  0  0
    0.0000    0.0000    0.0000 C   0  0  0  0  0  0  0  0  0  0  0  0
    0.0000    0.0000    0.0000 C   0  0  0  0  0  0  0  0  0  0  0  0
    0.0000    0.0000    0.0000 Cl  0  0  0  0  0  0  0  0  0  0  0  0
    0.0000    0.0000    0.0000 S   0  0  0  0  0  0  0  0  0  0  0  0
    0.0000    0.0000    0.0000 O   0  0  0  0  0  0  0  0  0  0  0  0
    0.0000    0.0000    0.0000 O   0  0  0  0  0  0  0  0  0  0  0  0
    0.0000    0.0000    0.0000 N   0  0  0  0  0  0  0  0  0  0  0  0
  1  2  1  0
  2  3  2  0
  3  4  1  0
  4  5  2  0
  5  6  1  0
  6  7  2  0
  7  8  1  0
  5  9  1  0
  9 10  2  0
  9 11  2  0
  9 12  1  0
  7  2  1  0
M  END
>  <pIC50>  (332) 
6.25

>  <ChEMBL_ID>  (332) 
CHEMBL7092

>  <document_journal>  (332) 
Bioorg. Med. Chem. Lett.

>  <bao_endpoint>  (332) 
BAO_0000190

>  <potential_duplicate>  (332) 
False

>  <uo_units>  (332) 
UO_0000065

>  <canonical_smiles>  (332) 
Nc1ccc(cc1Cl)S(=O)(=O)N

>  <parent_molecule_chembl_id>  (332) 
CHEMBL7092

>  <assay_type>  (332) 
B

>  <src_id>  (332) 
1

>  <ligand_efficiency>  (332) 
{u'le': u'0.71', u'bei': u'30.25', u'sei': u'6.61', u'lle': u'5.8'}

>  <standard_flag>  (332) 
True

>  <molecule_chembl_id>  (332) 
CHEMBL7092

>  <target_organism>  (332) 
Homo sapiens

>  <standard_units>  (332) 
nM

>  <record_id>  (332) 
376590

>  <document_chembl_id>  (332) 
CHEMBL1138639

>  <bao_format>  (332) 
BAO_0000357

>  <data_validity_description>  (332) 
None

>  <activity_id>  (332) 
1456136

>  <standard_type>  (332) 
IC50

>  <target_chembl_id>  (332) 
CHEMBL205

>  <data_validity_comment>  (332) 
None

>  <published_value>  (332) 
0.56

>  <document_year>  (332) 
2004

>  <target_pref_name>  (332) 
Carbonic anhydrase II

>  <assay_chembl_id>  (332) 
CHEMBL828069

>  <standard_relation>  (332) 
=

>  <assay_description>  (332) 
Inhibitory concentration against human cystolic isozyme II of Carbonic anhydrase

>  <published_relation>  (332) 
=

>  <standard_value>  (332) 
560

>  <qudt_units>  (332) 
http://www.openphacts.org/units/Nanomolar

>  <target_tax_id>  (332) 
9606

>  <bao_label>  (332) 
single protein format

>  <published_units>  (332) 
uM

>  <pchembl_value>  (332) 
6.25

>  <published_type>  (332) 
IC50

>  <activity_comment>  (332) 
None

$$$$

     RDKit          

 12 12  0  0  0  0  0  0  0  0999 V2000
    0.0000    0.0000    0.0000 N   0  0  0  0  0  0  0  0  0  0  0  0
    0.0000    0.0000    0.0000 C   0  0  0  0  0  0  0  0  0  0  0  0
    0.0000    0.0000    0.0000 C   0  0  0  0  0  0  0  0  0  0  0  0
    0.0000    0.0000    0.0000 C   0  0  0  0  0  0  0  0  0  0  0  0
    0.0000    0.0000    0.0000 C   0  0  0  0  0  0  0  0  0  0  0  0
    0.0000    0.0000    0.0000 C   0  0  0  0  0  0  0  0  0  0  0  0
    0.0000    0.0000    0.0000 C   0  0  0  0  0  0  0  0  0  0  0  0
    0.0000    0.0000    0.0000 Br  0  0  0  0  0  0  0  0  0  0  0  0
    0.0000    0.0000    0.0000 S   0  0  0  0  0  0  0  0  0  0  0  0
    0.0000    0.0000    0.0000 O   0  0  0  0  0  0  0  0  0  0  0  0
    0.0000    0.0000    0.0000 O   0  0  0  0  0  0  0  0  0  0  0  0
    0.0000    0.0000    0.0000 N   0  0  0  0  0  0  0  0  0  0  0  0
  1  2  1  0
  2  3  2  0
  3  4  1  0
  4  5  2  0
  5  6  1  0
  6  7  2  0
  7  8  1  0
  5  9  1  0
  9 10  2  0
  9 11  2  0
  9 12  1  0
  7  2  1  0
M  END
>  <pIC50>  (333) 
6.21

>  <ChEMBL_ID>  (333) 
CHEMBL6724

>  <document_journal>  (333) 
Bioorg. Med. Chem. Lett.

>  <bao_endpoint>  (333) 
BAO_0000190

>  <potential_duplicate>  (333) 
False

>  <uo_units>  (333) 
UO_0000065

>  <canonical_smiles>  (333) 
Nc1ccc(cc1Br)S(=O)(=O)N

>  <parent_molecule_chembl_id>  (333) 
CHEMBL6724

>  <assay_type>  (333) 
B

>  <src_id>  (333) 
1

>  <ligand_efficiency>  (333) 
{u'le': u'0.71', u'bei': u'24.72', u'sei': u'6.57', u'lle': u'5.67'}

>  <standard_flag>  (333) 
True

>  <molecule_chembl_id>  (333) 
CHEMBL6724

>  <target_organism>  (333) 
Homo sapiens

>  <standard_units>  (333) 
nM

>  <record_id>  (333) 
376616

>  <document_chembl_id>  (333) 
CHEMBL1138639

>  <bao_format>  (333) 
BAO_0000357

>  <data_validity_description>  (333) 
None

>  <activity_id>  (333) 
1456139

>  <standard_type>  (333) 
IC50

>  <target_chembl_id>  (333) 
CHEMBL205

>  <data_validity_comment>  (333) 
None

>  <published_value>  (333) 
0.62

>  <document_year>  (333) 
2004

>  <target_pref_name>  (333) 
Carbonic anhydrase II

>  <assay_chembl_id>  (333) 
CHEMBL828069

>  <standard_relation>  (333) 
=

>  <assay_description>  (333) 
Inhibitory concentration against human cystolic isozyme II of Carbonic anhydrase

>  <published_relation>  (333) 
=

>  <standard_value>  (333) 
620

>  <qudt_units>  (333) 
http://www.openphacts.org/units/Nanomolar

>  <target_tax_id>  (333) 
9606

>  <bao_label>  (333) 
single protein format

>  <published_units>  (333) 
uM

>  <pchembl_value>  (333) 
6.21

>  <published_type>  (333) 
IC50

>  <activity_comment>  (333) 
None

$$$$

     RDKit          

 12 12  0  0  0  0  0  0  0  0999 V2000
    0.0000    0.0000    0.0000 N   0  0  0  0  0  0  0  0  0  0  0  0
    0.0000    0.0000    0.0000 C   0  0  0  0  0  0  0  0  0  0  0  0
    0.0000    0.0000    0.0000 C   0  0  0  0  0  0  0  0  0  0  0  0
    0.0000    0.0000    0.0000 C   0  0  0  0  0  0  0  0  0  0  0  0
    0.0000    0.0000    0.0000 C   0  0  0  0  0  0  0  0  0  0  0  0
    0.0000    0.0000    0.0000 C   0  0  0  0  0  0  0  0  0  0  0  0
    0.0000    0.0000    0.0000 C   0  0  0  0  0  0  0  0  0  0  0  0
    0.0000    0.0000    0.0000 I   0  0  0  0  0  0  0  0  0  0  0  0
    0.0000    0.0000    0.0000 S   0  0  0  0  0  0  0  0  0  0  0  0
    0.0000    0.0000    0.0000 O   0  0  0  0  0  0  0  0  0  0  0  0
    0.0000    0.0000    0.0000 O   0  0  0  0  0  0  0  0  0  0  0  0
    0.0000    0.0000    0.0000 N   0  0  0  0  0  0  0  0  0  0  0  0
  1  2  1  0
  2  3  2  0
  3  4  1  0
  4  5  2  0
  5  6  1  0
  6  7  2  0
  7  8  1  0
  5  9  1  0
  9 10  2  0
  9 11  2  0
  9 12  1  0
  7  2  1  0
M  END
>  <pIC50>  (334) 
5.76

>  <ChEMBL_ID>  (334) 
CHEMBL268177

>  <document_journal>  (334) 
Bioorg. Med. Chem. Lett.

>  <bao_endpoint>  (334) 
BAO_0000190

>  <potential_duplicate>  (334) 
False

>  <uo_units>  (334) 
UO_0000065

>  <canonical_smiles>  (334) 
Nc1ccc(cc1I)S(=O)(=O)N

>  <parent_molecule_chembl_id>  (334) 
CHEMBL268177

>  <assay_type>  (334) 
B

>  <src_id>  (334) 
1

>  <ligand_efficiency>  (334) 
{u'le': u'0.66', u'bei': u'19.33', u'sei': u'6.09', u'lle': u'5.39'}

>  <standard_flag>  (334) 
True

>  <molecule_chembl_id>  (334) 
CHEMBL268177

>  <target_organism>  (334) 
Homo sapiens

>  <standard_units>  (334) 
nM

>  <record_id>  (334) 
376617

>  <document_chembl_id>  (334) 
CHEMBL1138639

>  <bao_format>  (334) 
BAO_0000357

>  <data_validity_description>  (334) 
None

>  <activity_id>  (334) 
1456142

>  <standard_type>  (334) 
IC50

>  <target_chembl_id>  (334) 
CHEMBL205

>  <data_validity_comment>  (334) 
None

>  <published_value>  (334) 
1.73

>  <document_year>  (334) 
2004

>  <target_pref_name>  (334) 
Carbonic anhydrase II

>  <assay_chembl_id>  (334) 
CHEMBL828069

>  <standard_relation>  (334) 
=

>  <assay_description>  (334) 
Inhibitory concentration against human cystolic isozyme II of Carbonic anhydrase

>  <published_relation>  (334) 
=

>  <standard_value>  (334) 
1730

>  <qudt_units>  (334) 
http://www.openphacts.org/units/Nanomolar

>  <target_tax_id>  (334) 
9606

>  <bao_label>  (334) 
single protein format

>  <published_units>  (334) 
uM

>  <pchembl_value>  (334) 
5.76

>  <published_type>  (334) 
IC50

>  <activity_comment>  (334) 
None

$$$$

     RDKit          

 11 11  0  0  0  0  0  0  0  0999 V2000
    0.0000    0.0000    0.0000 N   0  0  0  0  0  0  0  0  0  0  0  0
    0.0000    0.0000    0.0000 C   0  0  0  0  0  0  0  0  0  0  0  0
    0.0000    0.0000    0.0000 C   0  0  0  0  0  0  0  0  0  0  0  0
    0.0000    0.0000    0.0000 C   0  0  0  0  0  0  0  0  0  0  0  0
    0.0000    0.0000    0.0000 C   0  0  0  0  0  0  0  0  0  0  0  0
    0.0000    0.0000    0.0000 C   0  0  0  0  0  0  0  0  0  0  0  0
    0.0000    0.0000    0.0000 C   0  0  0  0  0  0  0  0  0  0  0  0
    0.0000    0.0000    0.0000 S   0  0  0  0  0  0  0  0  0  0  0  0
    0.0000    0.0000    0.0000 O   0  0  0  0  0  0  0  0  0  0  0  0
    0.0000    0.0000    0.0000 O   0  0  0  0  0  0  0  0  0  0  0  0
    0.0000    0.0000    0.0000 N   0  0  0  0  0  0  0  0  0  0  0  0
  1  2  1  0
  2  3  2  0
  3  4  1  0
  4  5  2  0
  5  6  1  0
  6  7  2  0
  5  8  1  0
  8  9  2  0
  8 10  2  0
  8 11  1  0
  7  2  1  0
M  END
>  <pIC50>  (335) 
6.105

>  <ChEMBL_ID>  (335) 
CHEMBL21

>  <document_journal>  (335) 
Bioorg. Med. Chem. Lett.

>  <bao_endpoint>  (335) 
BAO_0000190

>  <potential_duplicate>  (335) 
False

>  <uo_units>  (335) 
UO_0000065

>  <canonical_smiles>  (335) 
Nc1ccc(cc1)S(=O)(=O)N

>  <parent_molecule_chembl_id>  (335) 
CHEMBL21

>  <assay_type>  (335) 
B

>  <src_id>  (335) 
1

>  <ligand_efficiency>  (335) 
{u'le': u'0.7', u'bei': u'32.64', u'sei': u'5.94', u'lle': u'5.83'}

>  <standard_flag>  (335) 
True

>  <molecule_chembl_id>  (335) 
CHEMBL21

>  <target_organism>  (335) 
Homo sapiens

>  <standard_units>  (335) 
nM

>  <record_id>  (335) 
376618

>  <document_chembl_id>  (335) 
CHEMBL1138639

>  <bao_format>  (335) 
BAO_0000357

>  <data_validity_description>  (335) 
None

>  <activity_id>  (335) 
1456145

>  <standard_type>  (335) 
IC50

>  <target_chembl_id>  (335) 
CHEMBL205

>  <data_validity_comment>  (335) 
None

>  <published_value>  (335) 
2.4

>  <document_year>  (335) 
2004

>  <target_pref_name>  (335) 
Carbonic anhydrase II

>  <assay_chembl_id>  (335) 
CHEMBL828069

>  <standard_relation>  (335) 
=

>  <assay_description>  (335) 
Inhibitory concentration against human cystolic isozyme II of Carbonic anhydrase

>  <published_relation>  (335) 
=

>  <standard_value>  (335) 
2400

>  <qudt_units>  (335) 
http://www.openphacts.org/units/Nanomolar

>  <target_tax_id>  (335) 
9606

>  <bao_label>  (335) 
single protein format

>  <published_units>  (335) 
uM

>  <pchembl_value>  (335) 
5.62

>  <published_type>  (335) 
IC50

>  <activity_comment>  (335) 
None

$$$$

     RDKit          

 12 12  0  0  0  0  0  0  0  0999 V2000
    0.0000    0.0000    0.0000 N   0  0  0  0  0  0  0  0  0  0  0  0
    0.0000    0.0000    0.0000 C   0  0  0  0  0  0  0  0  0  0  0  0
    0.0000    0.0000    0.0000 C   0  0  0  0  0  0  0  0  0  0  0  0
    0.0000    0.0000    0.0000 C   0  0  0  0  0  0  0  0  0  0  0  0
    0.0000    0.0000    0.0000 C   0  0  0  0  0  0  0  0  0  0  0  0
    0.0000    0.0000    0.0000 C   0  0  0  0  0  0  0  0  0  0  0  0
    0.0000    0.0000    0.0000 C   0  0  0  0  0  0  0  0  0  0  0  0
    0.0000    0.0000    0.0000 C   0  0  0  0  0  0  0  0  0  0  0  0
    0.0000    0.0000    0.0000 S   0  0  0  0  0  0  0  0  0  0  0  0
    0.0000    0.0000    0.0000 O   0  0  0  0  0  0  0  0  0  0  0  0
    0.0000    0.0000    0.0000 O   0  0  0  0  0  0  0  0  0  0  0  0
    0.0000    0.0000    0.0000 N   0  0  0  0  0  0  0  0  0  0  0  0
  1  2  1  0
  2  3  1  0
  3  4  2  0
  4  5  1  0
  5  6  2  0
  6  7  1  0
  7  8  2  0
  6  9  1  0
  9 10  2  0
  9 11  2  0
  9 12  1  0
  8  3  1  0
M  END
>  <pIC50>  (336) 
5.4

>  <ChEMBL_ID>  (336) 
CHEMBL419

>  <document_journal>  (336) 
Bioorg. Med. Chem. Lett.

>  <bao_endpoint>  (336) 
BAO_0000190

>  <potential_duplicate>  (336) 
False

>  <uo_units>  (336) 
UO_0000065

>  <canonical_smiles>  (336) 
NCc1ccc(cc1)S(=O)(=O)N

>  <parent_molecule_chembl_id>  (336) 
CHEMBL419

>  <assay_type>  (336) 
B

>  <src_id>  (336) 
1

>  <ligand_efficiency>  (336) 
{u'le': u'0.61', u'bei': u'28.99', u'sei': u'5.71', u'lle': u'5.76'}

>  <standard_flag>  (336) 
True

>  <molecule_chembl_id>  (336) 
CHEMBL419

>  <target_organism>  (336) 
Homo sapiens

>  <standard_units>  (336) 
nM

>  <record_id>  (336) 
376640

>  <document_chembl_id>  (336) 
CHEMBL1138639

>  <bao_format>  (336) 
BAO_0000357

>  <data_validity_description>  (336) 
None

>  <activity_id>  (336) 
1456531

>  <standard_type>  (336) 
IC50

>  <target_chembl_id>  (336) 
CHEMBL205

>  <data_validity_comment>  (336) 
None

>  <published_value>  (336) 
4

>  <document_year>  (336) 
2004

>  <target_pref_name>  (336) 
Carbonic anhydrase II

>  <assay_chembl_id>  (336) 
CHEMBL828069

>  <standard_relation>  (336) 
=

>  <assay_description>  (336) 
Inhibitory concentration against human cystolic isozyme II of Carbonic anhydrase

>  <published_relation>  (336) 
=

>  <standard_value>  (336) 
4000

>  <qudt_units>  (336) 
http://www.openphacts.org/units/Nanomolar

>  <target_tax_id>  (336) 
9606

>  <bao_label>  (336) 
single protein format

>  <published_units>  (336) 
uM

>  <pchembl_value>  (336) 
5.4

>  <published_type>  (336) 
IC50

>  <activity_comment>  (336) 
None

$$$$

     RDKit          

 13 13  0  0  0  0  0  0  0  0999 V2000
    0.0000    0.0000    0.0000 N   0  0  0  0  0  0  0  0  0  0  0  0
    0.0000    0.0000    0.0000 C   0  0  0  0  0  0  0  0  0  0  0  0
    0.0000    0.0000    0.0000 C   0  0  0  0  0  0  0  0  0  0  0  0
    0.0000    0.0000    0.0000 C   0  0  0  0  0  0  0  0  0  0  0  0
    0.0000    0.0000    0.0000 C   0  0  0  0  0  0  0  0  0  0  0  0
    0.0000    0.0000    0.0000 C   0  0  0  0  0  0  0  0  0  0  0  0
    0.0000    0.0000    0.0000 C   0  0  0  0  0  0  0  0  0  0  0  0
    0.0000    0.0000    0.0000 C   0  0  0  0  0  0  0  0  0  0  0  0
    0.0000    0.0000    0.0000 C   0  0  0  0  0  0  0  0  0  0  0  0
    0.0000    0.0000    0.0000 S   0  0  0  0  0  0  0  0  0  0  0  0
    0.0000    0.0000    0.0000 O   0  0  0  0  0  0  0  0  0  0  0  0
    0.0000    0.0000    0.0000 O   0  0  0  0  0  0  0  0  0  0  0  0
    0.0000    0.0000    0.0000 N   0  0  0  0  0  0  0  0  0  0  0  0
  1  2  1  0
  2  3  1  0
  3  4  1  0
  4  5  2  0
  5  6  1  0
  6  7  2  0
  7  8  1  0
  8  9  2  0
  7 10  1  0
 10 11  2  0
 10 12  2  0
 10 13  1  0
  9  4  1  0
M  END
>  <pIC50>  (337) 
5.51

>  <ChEMBL_ID>  (337) 
CHEMBL7087

>  <document_journal>  (337) 
Bioorg. Med. Chem. Lett.

>  <bao_endpoint>  (337) 
BAO_0000190

>  <potential_duplicate>  (337) 
False

>  <uo_units>  (337) 
UO_0000065

>  <canonical_smiles>  (337) 
NCCc1ccc(cc1)S(=O)(=O)N

>  <parent_molecule_chembl_id>  (337) 
CHEMBL7087

>  <assay_type>  (337) 
B

>  <src_id>  (337) 
1

>  <ligand_efficiency>  (337) 
{u'le': u'0.58', u'bei': u'27.51', u'sei': u'5.83', u'lle': u'5.55'}

>  <standard_flag>  (337) 
True

>  <molecule_chembl_id>  (337) 
CHEMBL7087

>  <target_organism>  (337) 
Homo sapiens

>  <standard_units>  (337) 
nM

>  <record_id>  (337) 
376641

>  <document_chembl_id>  (337) 
CHEMBL1138639

>  <bao_format>  (337) 
BAO_0000357

>  <data_validity_description>  (337) 
None

>  <activity_id>  (337) 
1456534

>  <standard_type>  (337) 
IC50

>  <target_chembl_id>  (337) 
CHEMBL205

>  <data_validity_comment>  (337) 
None

>  <published_value>  (337) 
3.1

>  <document_year>  (337) 
2004

>  <target_pref_name>  (337) 
Carbonic anhydrase II

>  <assay_chembl_id>  (337) 
CHEMBL828069

>  <standard_relation>  (337) 
=

>  <assay_description>  (337) 
Inhibitory concentration against human cystolic isozyme II of Carbonic anhydrase

>  <published_relation>  (337) 
=

>  <standard_value>  (337) 
3100

>  <qudt_units>  (337) 
http://www.openphacts.org/units/Nanomolar

>  <target_tax_id>  (337) 
9606

>  <bao_label>  (337) 
single protein format

>  <published_units>  (337) 
uM

>  <pchembl_value>  (337) 
5.51

>  <published_type>  (337) 
IC50

>  <activity_comment>  (337) 
None

$$$$

     RDKit          

 13 13  0  0  0  0  0  0  0  0999 V2000
    0.0000    0.0000    0.0000 N   0  0  0  0  0  0  0  0  0  0  0  0
    0.0000    0.0000    0.0000 S   0  0  0  0  0  0  0  0  0  0  0  0
    0.0000    0.0000    0.0000 O   0  0  0  0  0  0  0  0  0  0  0  0
    0.0000    0.0000    0.0000 O   0  0  0  0  0  0  0  0  0  0  0  0
    0.0000    0.0000    0.0000 C   0  0  0  0  0  0  0  0  0  0  0  0
    0.0000    0.0000    0.0000 C   0  0  0  0  0  0  0  0  0  0  0  0
    0.0000    0.0000    0.0000 C   0  0  0  0  0  0  0  0  0  0  0  0
    0.0000    0.0000    0.0000 C   0  0  0  0  0  0  0  0  0  0  0  0
    0.0000    0.0000    0.0000 C   0  0  0  0  0  0  0  0  0  0  0  0
    0.0000    0.0000    0.0000 C   0  0  0  0  0  0  0  0  0  0  0  0
    0.0000    0.0000    0.0000 O   0  0  0  0  0  0  0  0  0  0  0  0
    0.0000    0.0000    0.0000 C   0  0  0  0  0  0  0  0  0  0  0  0
    0.0000    0.0000    0.0000 C   0  0  0  0  0  0  0  0  0  0  0  0
  1  2  1  0
  2  3  2  0
  2  4  2  0
  2  5  1  0
  5  6  2  0
  6  7  1  0
  7  8  2  0
  8  9  1  0
  9 10  1  0
 10 11  1  0
  8 12  1  0
 12 13  2  0
 13  5  1  0
M  END
>  <pIC50>  (338) 
5.52

>  <ChEMBL_ID>  (338) 
CHEMBL6784

>  <document_journal>  (338) 
Bioorg. Med. Chem. Lett.

>  <bao_endpoint>  (338) 
BAO_0000190

>  <potential_duplicate>  (338) 
False

>  <uo_units>  (338) 
UO_0000065

>  <canonical_smiles>  (338) 
NS(=O)(=O)c1ccc(CCO)cc1

>  <parent_molecule_chembl_id>  (338) 
CHEMBL6784

>  <assay_type>  (338) 
B

>  <src_id>  (338) 
1

>  <ligand_efficiency>  (338) 
{u'le': u'0.58', u'bei': u'27.44', u'sei': u'6.22', u'lle': u'5.27'}

>  <standard_flag>  (338) 
True

>  <molecule_chembl_id>  (338) 
CHEMBL6784

>  <target_organism>  (338) 
Homo sapiens

>  <standard_units>  (338) 
nM

>  <record_id>  (338) 
376664

>  <document_chembl_id>  (338) 
CHEMBL1138639

>  <bao_format>  (338) 
BAO_0000357

>  <data_validity_description>  (338) 
None

>  <activity_id>  (338) 
1456539

>  <standard_type>  (338) 
IC50

>  <target_chembl_id>  (338) 
CHEMBL205

>  <data_validity_comment>  (338) 
None

>  <published_value>  (338) 
3

>  <document_year>  (338) 
2004

>  <target_pref_name>  (338) 
Carbonic anhydrase II

>  <assay_chembl_id>  (338) 
CHEMBL828069

>  <standard_relation>  (338) 
=

>  <assay_description>  (338) 
Inhibitory concentration against human cystolic isozyme II of Carbonic anhydrase

>  <published_relation>  (338) 
=

>  <standard_value>  (338) 
3000

>  <qudt_units>  (338) 
http://www.openphacts.org/units/Nanomolar

>  <target_tax_id>  (338) 
9606

>  <bao_label>  (338) 
single protein format

>  <published_units>  (338) 
uM

>  <pchembl_value>  (338) 
5.52

>  <published_type>  (338) 
IC50

>  <activity_comment>  (338) 
None

$$$$

     RDKit          

 19 19  0  0  0  0  0  0  0  0999 V2000
    0.0000    0.0000    0.0000 N   0  0  0  0  0  0  0  0  0  0  0  0
    0.0000    0.0000    0.0000 C   0  0  0  0  0  0  0  0  0  0  0  0
    0.0000    0.0000    0.0000 C   0  0  0  0  0  0  0  0  0  0  0  0
    0.0000    0.0000    0.0000 C   0  0  0  0  0  0  0  0  0  0  0  0
    0.0000    0.0000    0.0000 C   0  0  0  0  0  0  0  0  0  0  0  0
    0.0000    0.0000    0.0000 C   0  0  0  0  0  0  0  0  0  0  0  0
    0.0000    0.0000    0.0000 C   0  0  0  0  0  0  0  0  0  0  0  0
    0.0000    0.0000    0.0000 S   0  0  0  0  0  0  0  0  0  0  0  0
    0.0000    0.0000    0.0000 O   0  0  0  0  0  0  0  0  0  0  0  0
    0.0000    0.0000    0.0000 O   0  0  0  0  0  0  0  0  0  0  0  0
    0.0000    0.0000    0.0000 N   0  0  0  0  0  0  0  0  0  0  0  0
    0.0000    0.0000    0.0000 S   0  0  0  0  0  0  0  0  0  0  0  0
    0.0000    0.0000    0.0000 O   0  0  0  0  0  0  0  0  0  0  0  0
    0.0000    0.0000    0.0000 O   0  0  0  0  0  0  0  0  0  0  0  0
    0.0000    0.0000    0.0000 N   0  0  0  0  0  0  0  0  0  0  0  0
    0.0000    0.0000    0.0000 C   0  0  0  0  0  0  0  0  0  0  0  0
    0.0000    0.0000    0.0000 F   0  0  0  0  0  0  0  0  0  0  0  0
    0.0000    0.0000    0.0000 F   0  0  0  0  0  0  0  0  0  0  0  0
    0.0000    0.0000    0.0000 F   0  0  0  0  0  0  0  0  0  0  0  0
  1  2  1  0
  2  3  2  0
  3  4  1  0
  4  5  2  0
  5  6  1  0
  6  7  2  0
  7  8  1  0
  8  9  2  0
  8 10  2  0
  8 11  1  0
  5 12  1  0
 12 13  2  0
 12 14  2  0
 12 15  1  0
  4 16  1  0
 16 17  1  0
 16 18  1  0
 16 19  1  0
  7  2  1  0
M  END
>  <pIC50>  (339) 
6.47

>  <ChEMBL_ID>  (339) 
CHEMBL418

>  <document_journal>  (339) 
Bioorg. Med. Chem. Lett.

>  <bao_endpoint>  (339) 
BAO_0000190

>  <potential_duplicate>  (339) 
False

>  <uo_units>  (339) 
UO_0000065

>  <canonical_smiles>  (339) 
Nc1cc(c(cc1S(=O)(=O)N)S(=O)(=O)N)C(F)(F)F

>  <parent_molecule_chembl_id>  (339) 
CHEMBL418

>  <assay_type>  (339) 
B

>  <src_id>  (339) 
1

>  <ligand_efficiency>  (339) 
{u'le': u'0.46', u'bei': u'20.26', u'sei': u'3.97', u'lle': u'7.03'}

>  <standard_flag>  (339) 
True

>  <molecule_chembl_id>  (339) 
CHEMBL418

>  <target_organism>  (339) 
Homo sapiens

>  <standard_units>  (339) 
nM

>  <record_id>  (339) 
376665

>  <document_chembl_id>  (339) 
CHEMBL1138639

>  <bao_format>  (339) 
BAO_0000357

>  <data_validity_description>  (339) 
None

>  <activity_id>  (339) 
1456542

>  <standard_type>  (339) 
IC50

>  <target_chembl_id>  (339) 
CHEMBL205

>  <data_validity_comment>  (339) 
None

>  <published_value>  (339) 
0.34

>  <document_year>  (339) 
2004

>  <target_pref_name>  (339) 
Carbonic anhydrase II

>  <assay_chembl_id>  (339) 
CHEMBL828069

>  <standard_relation>  (339) 
=

>  <assay_description>  (339) 
Inhibitory concentration against human cystolic isozyme II of Carbonic anhydrase

>  <published_relation>  (339) 
=

>  <standard_value>  (339) 
340

>  <qudt_units>  (339) 
http://www.openphacts.org/units/Nanomolar

>  <target_tax_id>  (339) 
9606

>  <bao_label>  (339) 
single protein format

>  <published_units>  (339) 
uM

>  <pchembl_value>  (339) 
6.47

>  <published_type>  (339) 
IC50

>  <activity_comment>  (339) 
None

$$$$

     RDKit          

 12 12  0  0  0  0  0  0  0  0999 V2000
    0.0000    0.0000    0.0000 N   0  0  0  0  0  0  0  0  0  0  0  0
    0.0000    0.0000    0.0000 N   0  0  0  0  0  0  0  0  0  0  0  0
    0.0000    0.0000    0.0000 C   0  0  0  0  0  0  0  0  0  0  0  0
    0.0000    0.0000    0.0000 C   0  0  0  0  0  0  0  0  0  0  0  0
    0.0000    0.0000    0.0000 C   0  0  0  0  0  0  0  0  0  0  0  0
    0.0000    0.0000    0.0000 C   0  0  0  0  0  0  0  0  0  0  0  0
    0.0000    0.0000    0.0000 C   0  0  0  0  0  0  0  0  0  0  0  0
    0.0000    0.0000    0.0000 C   0  0  0  0  0  0  0  0  0  0  0  0
    0.0000    0.0000    0.0000 S   0  0  0  0  0  0  0  0  0  0  0  0
    0.0000    0.0000    0.0000 O   0  0  0  0  0  0  0  0  0  0  0  0
    0.0000    0.0000    0.0000 O   0  0  0  0  0  0  0  0  0  0  0  0
    0.0000    0.0000    0.0000 N   0  0  0  0  0  0  0  0  0  0  0  0
  1  2  1  0
  2  3  1  0
  3  4  2  0
  4  5  1  0
  5  6  2  0
  6  7  1  0
  7  8  2  0
  6  9  1  0
  9 10  2  0
  9 11  2  0
  9 12  1  0
  8  3  1  0
M  END
>  <pIC50>  (340) 
7.1

>  <ChEMBL_ID>  (340) 
CHEMBL7204

>  <document_journal>  (340) 
Bioorg. Med. Chem. Lett.

>  <bao_endpoint>  (340) 
BAO_0000190

>  <potential_duplicate>  (340) 
False

>  <uo_units>  (340) 
UO_0000065

>  <canonical_smiles>  (340) 
NNc1ccc(cc1)S(=O)(=O)N

>  <parent_molecule_chembl_id>  (340) 
CHEMBL7204

>  <assay_type>  (340) 
B

>  <src_id>  (340) 
1

>  <ligand_efficiency>  (340) 
{u'le': u'0.81', u'bei': u'37.91', u'sei': u'6.66', u'lle': u'7.29'}

>  <standard_flag>  (340) 
True

>  <molecule_chembl_id>  (340) 
CHEMBL7204

>  <target_organism>  (340) 
Homo sapiens

>  <standard_units>  (340) 
nM

>  <record_id>  (340) 
376666

>  <document_chembl_id>  (340) 
CHEMBL1138639

>  <bao_format>  (340) 
BAO_0000357

>  <data_validity_description>  (340) 
None

>  <activity_id>  (340) 
1456545

>  <standard_type>  (340) 
IC50

>  <target_chembl_id>  (340) 
CHEMBL205

>  <data_validity_comment>  (340) 
None

>  <published_value>  (340) 
0.08

>  <document_year>  (340) 
2004

>  <target_pref_name>  (340) 
Carbonic anhydrase II

>  <assay_chembl_id>  (340) 
CHEMBL828069

>  <standard_relation>  (340) 
=

>  <assay_description>  (340) 
Inhibitory concentration against human cystolic isozyme II of Carbonic anhydrase

>  <published_relation>  (340) 
=

>  <standard_value>  (340) 
80

>  <qudt_units>  (340) 
http://www.openphacts.org/units/Nanomolar

>  <target_tax_id>  (340) 
9606

>  <bao_label>  (340) 
single protein format

>  <published_units>  (340) 
uM

>  <pchembl_value>  (340) 
7.1

>  <published_type>  (340) 
IC50

>  <activity_comment>  (340) 
None

$$$$

     RDKit          

 16 16  0  0  0  0  0  0  0  0999 V2000
    0.0000    0.0000    0.0000 N   0  0  0  0  0  0  0  0  0  0  0  0
    0.0000    0.0000    0.0000 C   0  0  0  0  0  0  0  0  0  0  0  0
    0.0000    0.0000    0.0000 C   0  0  0  0  0  0  0  0  0  0  0  0
    0.0000    0.0000    0.0000 C   0  0  0  0  0  0  0  0  0  0  0  0
    0.0000    0.0000    0.0000 Cl  0  0  0  0  0  0  0  0  0  0  0  0
    0.0000    0.0000    0.0000 C   0  0  0  0  0  0  0  0  0  0  0  0
    0.0000    0.0000    0.0000 C   0  0  0  0  0  0  0  0  0  0  0  0
    0.0000    0.0000    0.0000 C   0  0  0  0  0  0  0  0  0  0  0  0
    0.0000    0.0000    0.0000 S   0  0  0  0  0  0  0  0  0  0  0  0
    0.0000    0.0000    0.0000 O   0  0  0  0  0  0  0  0  0  0  0  0
    0.0000    0.0000    0.0000 O   0  0  0  0  0  0  0  0  0  0  0  0
    0.0000    0.0000    0.0000 N   0  0  0  0  0  0  0  0  0  0  0  0
    0.0000    0.0000    0.0000 S   0  0  0  0  0  0  0  0  0  0  0  0
    0.0000    0.0000    0.0000 O   0  0  0  0  0  0  0  0  0  0  0  0
    0.0000    0.0000    0.0000 O   0  0  0  0  0  0  0  0  0  0  0  0
    0.0000    0.0000    0.0000 N   0  0  0  0  0  0  0  0  0  0  0  0
  1  2  1  0
  2  3  2  0
  3  4  1  0
  4  5  1  0
  4  6  2  0
  6  7  1  0
  7  8  2  0
  8  9  1  0
  9 10  2  0
  9 11  2  0
  9 12  1  0
  6 13  1  0
 13 14  2  0
 13 15  2  0
 13 16  1  0
  8  2  1  0
M  END
>  <pIC50>  (341) 
7.02

>  <ChEMBL_ID>  (341) 
CHEMBL266240

>  <document_journal>  (341) 
Bioorg. Med. Chem. Lett.

>  <bao_endpoint>  (341) 
BAO_0000190

>  <potential_duplicate>  (341) 
False

>  <uo_units>  (341) 
UO_0000065

>  <canonical_smiles>  (341) 
Nc1cc(Cl)c(cc1S(=O)(=O)N)S(=O)(=O)N

>  <parent_molecule_chembl_id>  (341) 
CHEMBL266240

>  <assay_type>  (341) 
B

>  <src_id>  (341) 
1

>  <ligand_efficiency>  (341) 
{u'le': u'0.6', u'bei': u'24.56', u'sei': u'4.3', u'lle': u'7.86'}

>  <standard_flag>  (341) 
True

>  <molecule_chembl_id>  (341) 
CHEMBL266240

>  <target_organism>  (341) 
Homo sapiens

>  <standard_units>  (341) 
nM

>  <record_id>  (341) 
376688

>  <document_chembl_id>  (341) 
CHEMBL1138639

>  <bao_format>  (341) 
BAO_0000357

>  <data_validity_description>  (341) 
None

>  <activity_id>  (341) 
1456548

>  <standard_type>  (341) 
IC50

>  <target_chembl_id>  (341) 
CHEMBL205

>  <data_validity_comment>  (341) 
None

>  <published_value>  (341) 
0.096

>  <document_year>  (341) 
2004

>  <target_pref_name>  (341) 
Carbonic anhydrase II

>  <assay_chembl_id>  (341) 
CHEMBL828069

>  <standard_relation>  (341) 
=

>  <assay_description>  (341) 
Inhibitory concentration against human cystolic isozyme II of Carbonic anhydrase

>  <published_relation>  (341) 
=

>  <standard_value>  (341) 
96

>  <qudt_units>  (341) 
http://www.openphacts.org/units/Nanomolar

>  <target_tax_id>  (341) 
9606

>  <bao_label>  (341) 
single protein format

>  <published_units>  (341) 
uM

>  <pchembl_value>  (341) 
7.02

>  <published_type>  (341) 
IC50

>  <activity_comment>  (341) 
None

$$$$

     RDKit          

 18 19  0  0  0  0  0  0  0  0999 V2000
    0.0000    0.0000    0.0000 N   0  0  0  0  0  0  0  0  0  0  0  0
    0.0000    0.0000    0.0000 C   0  0  0  0  0  0  0  0  0  0  0  0
    0.0000    0.0000    0.0000 N   0  0  0  0  0  0  0  0  0  0  0  0
    0.0000    0.0000    0.0000 C   0  0  0  0  0  0  0  0  0  0  0  0
    0.0000    0.0000    0.0000 C   0  0  0  0  0  0  0  0  0  0  0  0
    0.0000    0.0000    0.0000 C   0  0  0  0  0  0  0  0  0  0  0  0
    0.0000    0.0000    0.0000 N   0  0  0  0  0  0  0  0  0  0  0  0
    0.0000    0.0000    0.0000 C   0  0  0  0  0  0  0  0  0  0  0  0
    0.0000    0.0000    0.0000 C   0  0  0  0  0  0  0  0  0  0  0  0
    0.0000    0.0000    0.0000 C   0  0  0  0  0  0  0  0  0  0  0  0
    0.0000    0.0000    0.0000 C   0  0  0  0  0  0  0  0  0  0  0  0
    0.0000    0.0000    0.0000 C   0  0  0  0  0  0  0  0  0  0  0  0
    0.0000    0.0000    0.0000 C   0  0  0  0  0  0  0  0  0  0  0  0
    0.0000    0.0000    0.0000 S   0  0  0  0  0  0  0  0  0  0  0  0
    0.0000    0.0000    0.0000 O   0  0  0  0  0  0  0  0  0  0  0  0
    0.0000    0.0000    0.0000 O   0  0  0  0  0  0  0  0  0  0  0  0
    0.0000    0.0000    0.0000 N   0  0  0  0  0  0  0  0  0  0  0  0
    0.0000    0.0000    0.0000 N   0  0  0  0  0  0  0  0  0  0  0  0
  1  2  1  0
  2  3  2  0
  3  4  1  0
  4  5  2  0
  5  6  1  0
  6  7  1  0
  7  8  1  0
  8  9  2  0
  9 10  1  0
 10 11  2  0
 11 12  1  0
 12 13  2  0
 11 14  1  0
 14 15  2  0
 14 16  2  0
 14 17  1  0
  6 18  2  0
 18  2  1  0
 13  8  1  0
M  END
>  <pIC50>  (342) 
7.05

>  <ChEMBL_ID>  (342) 
CHEMBL6633

>  <document_journal>  (342) 
Bioorg. Med. Chem. Lett.

>  <bao_endpoint>  (342) 
BAO_0000190

>  <potential_duplicate>  (342) 
False

>  <uo_units>  (342) 
UO_0000065

>  <canonical_smiles>  (342) 
Nc1nccc(Nc2ccc(cc2)S(=O)(=O)N)n1

>  <parent_molecule_chembl_id>  (342) 
CHEMBL6633

>  <assay_type>  (342) 
B

>  <src_id>  (342) 
1

>  <ligand_efficiency>  (342) 
{u'le': u'0.53', u'bei': u'26.58', u'sei': u'5.33', u'lle': u'6.43'}

>  <standard_flag>  (342) 
True

>  <molecule_chembl_id>  (342) 
CHEMBL6633

>  <target_organism>  (342) 
Homo sapiens

>  <standard_units>  (342) 
nM

>  <record_id>  (342) 
376689

>  <document_chembl_id>  (342) 
CHEMBL1138639

>  <bao_format>  (342) 
BAO_0000357

>  <data_validity_description>  (342) 
None

>  <activity_id>  (342) 
1456551

>  <standard_type>  (342) 
IC50

>  <target_chembl_id>  (342) 
CHEMBL205

>  <data_validity_comment>  (342) 
None

>  <published_value>  (342) 
0.089

>  <document_year>  (342) 
2004

>  <target_pref_name>  (342) 
Carbonic anhydrase II

>  <assay_chembl_id>  (342) 
CHEMBL828069

>  <standard_relation>  (342) 
=

>  <assay_description>  (342) 
Inhibitory concentration against human cystolic isozyme II of Carbonic anhydrase

>  <published_relation>  (342) 
=

>  <standard_value>  (342) 
89

>  <qudt_units>  (342) 
http://www.openphacts.org/units/Nanomolar

>  <target_tax_id>  (342) 
9606

>  <bao_label>  (342) 
single protein format

>  <published_units>  (342) 
uM

>  <pchembl_value>  (342) 
7.05

>  <published_type>  (342) 
IC50

>  <activity_comment>  (342) 
None

$$$$

     RDKit          

 15 15  0  0  0  0  0  0  0  0999 V2000
    0.0000    0.0000    0.0000 N   0  0  0  0  0  0  0  0  0  0  0  0
    0.0000    0.0000    0.0000 C   0  0  0  0  0  0  0  0  0  0  0  0
    0.0000    0.0000    0.0000 N   0  0  0  0  0  0  0  0  0  0  0  0
    0.0000    0.0000    0.0000 N   0  0  0  0  0  0  0  0  0  0  0  0
    0.0000    0.0000    0.0000 C   0  0  0  0  0  0  0  0  0  0  0  0
    0.0000    0.0000    0.0000 C   0  0  0  0  0  0  0  0  0  0  0  0
    0.0000    0.0000    0.0000 C   0  0  0  0  0  0  0  0  0  0  0  0
    0.0000    0.0000    0.0000 C   0  0  0  0  0  0  0  0  0  0  0  0
    0.0000    0.0000    0.0000 C   0  0  0  0  0  0  0  0  0  0  0  0
    0.0000    0.0000    0.0000 C   0  0  0  0  0  0  0  0  0  0  0  0
    0.0000    0.0000    0.0000 S   0  0  0  0  0  0  0  0  0  0  0  0
    0.0000    0.0000    0.0000 O   0  0  0  0  0  0  0  0  0  0  0  0
    0.0000    0.0000    0.0000 O   0  0  0  0  0  0  0  0  0  0  0  0
    0.0000    0.0000    0.0000 N   0  0  0  0  0  0  0  0  0  0  0  0
    0.0000    0.0000    0.0000 S   0  0  0  0  0  0  0  0  0  0  0  0
  1  2  1  0
  2  3  2  0
  3  4  1  0
  4  5  1  0
  5  6  2  0
  6  7  1  0
  7  8  2  0
  8  9  1  0
  9 10  2  0
  8 11  1  0
 11 12  2  0
 11 13  2  0
 11 14  1  0
  2 15  1  0
 10  5  1  0
M  END
>  <pIC50>  (343) 
6.54

>  <ChEMBL_ID>  (343) 
CHEMBL186636

>  <document_journal>  (343) 
Bioorg. Med. Chem. Lett.

>  <bao_endpoint>  (343) 
BAO_0000190

>  <potential_duplicate>  (343) 
False

>  <uo_units>  (343) 
UO_0000065

>  <canonical_smiles>  (343) 
N\C(=N\Nc1ccc(cc1)S(=O)(=O)N)\S

>  <parent_molecule_chembl_id>  (343) 
CHEMBL186636

>  <assay_type>  (343) 
B

>  <src_id>  (343) 
1

>  <ligand_efficiency>  (343) 
{u'le': u'0.6', u'bei': u'26.54', u'sei': u'4.14', u'lle': u'5.79'}

>  <standard_flag>  (343) 
True

>  <molecule_chembl_id>  (343) 
CHEMBL186636

>  <target_organism>  (343) 
Homo sapiens

>  <standard_units>  (343) 
nM

>  <record_id>  (343) 
376690

>  <document_chembl_id>  (343) 
CHEMBL1138639

>  <bao_format>  (343) 
BAO_0000357

>  <data_validity_description>  (343) 
None

>  <activity_id>  (343) 
1456554

>  <standard_type>  (343) 
IC50

>  <target_chembl_id>  (343) 
CHEMBL205

>  <data_validity_comment>  (343) 
None

>  <published_value>  (343) 
0.29

>  <document_year>  (343) 
2004

>  <target_pref_name>  (343) 
Carbonic anhydrase II

>  <assay_chembl_id>  (343) 
CHEMBL828069

>  <standard_relation>  (343) 
=

>  <assay_description>  (343) 
Inhibitory concentration against human cystolic isozyme II of Carbonic anhydrase

>  <published_relation>  (343) 
=

>  <standard_value>  (343) 
290

>  <qudt_units>  (343) 
http://www.openphacts.org/units/Nanomolar

>  <target_tax_id>  (343) 
9606

>  <bao_label>  (343) 
single protein format

>  <published_units>  (343) 
uM

>  <pchembl_value>  (343) 
6.54

>  <published_type>  (343) 
IC50

>  <activity_comment>  (343) 
None

$$$$

     RDKit          

 16 17  0  0  0  0  0  0  0  0999 V2000
    0.0000    0.0000    0.0000 N   0  0  0  0  0  0  0  0  0  0  0  0
    0.0000    0.0000    0.0000 S   0  0  0  0  0  0  0  0  0  0  0  0
    0.0000    0.0000    0.0000 O   0  0  0  0  0  0  0  0  0  0  0  0
    0.0000    0.0000    0.0000 O   0  0  0  0  0  0  0  0  0  0  0  0
    0.0000    0.0000    0.0000 C   0  0  0  0  0  0  0  0  0  0  0  0
    0.0000    0.0000    0.0000 N   0  0  0  0  0  0  0  0  0  0  0  0
    0.0000    0.0000    0.0000 C   0  0  0  0  0  0  0  0  0  0  0  0
    0.0000    0.0000    0.0000 C   0  0  0  0  0  0  0  0  0  0  0  0
    0.0000    0.0000    0.0000 C   0  0  0  0  0  0  0  0  0  0  0  0
    0.0000    0.0000    0.0000 C   0  0  0  0  0  0  0  0  0  0  0  0
    0.0000    0.0000    0.0000 C   0  0  0  0  0  0  0  0  0  0  0  0
    0.0000    0.0000    0.0000 C   0  0  0  0  0  0  0  0  0  0  0  0
    0.0000    0.0000    0.0000 S   0  0  0  0  0  0  0  0  0  0  0  0
    0.0000    0.0000    0.0000 N   0  0  0  0  0  0  0  0  0  0  0  0
    0.0000    0.0000    0.0000 O   0  0  0  0  0  0  0  0  0  0  0  0
    0.0000    0.0000    0.0000 O   0  0  0  0  0  0  0  0  0  0  0  0
  1  2  1  0
  2  3  2  0
  2  4  2  0
  2  5  1  0
  5  6  2  0
  6  7  1  0
  7  8  2  0
  8  9  1  0
  9 10  2  0
 10 11  1  0
 11 12  2  0
 12 13  1  0
 10 14  1  0
 14 15  2  0
 14 16  1  0
 13  5  1  0
 12  7  1  0
M  CHG  2  14   1  16  -1
M  END
>  <pIC50>  (344) 
6.6

>  <ChEMBL_ID>  (344) 
CHEMBL186335

>  <document_journal>  (344) 
Bioorg. Med. Chem. Lett.

>  <bao_endpoint>  (344) 
BAO_0000190

>  <potential_duplicate>  (344) 
False

>  <uo_units>  (344) 
UO_0000065

>  <canonical_smiles>  (344) 
NS(=O)(=O)c1nc2ccc(cc2s1)[N+](=O)[O-]

>  <parent_molecule_chembl_id>  (344) 
CHEMBL186335

>  <assay_type>  (344) 
B

>  <src_id>  (344) 
1

>  <ligand_efficiency>  (344) 
{u'le': u'0.56', u'bei': u'25.47', u'sei': u'4.25', u'lle': u'5.54'}

>  <standard_flag>  (344) 
True

>  <molecule_chembl_id>  (344) 
CHEMBL186335

>  <target_organism>  (344) 
Homo sapiens

>  <standard_units>  (344) 
nM

>  <record_id>  (344) 
376713

>  <document_chembl_id>  (344) 
CHEMBL1138639

>  <bao_format>  (344) 
BAO_0000357

>  <data_validity_description>  (344) 
None

>  <activity_id>  (344) 
1456557

>  <standard_type>  (344) 
IC50

>  <target_chembl_id>  (344) 
CHEMBL205

>  <data_validity_comment>  (344) 
None

>  <published_value>  (344) 
0.25

>  <document_year>  (344) 
2004

>  <target_pref_name>  (344) 
Carbonic anhydrase II

>  <assay_chembl_id>  (344) 
CHEMBL828069

>  <standard_relation>  (344) 
=

>  <assay_description>  (344) 
Inhibitory concentration against human cystolic isozyme II of Carbonic anhydrase

>  <published_relation>  (344) 
=

>  <standard_value>  (344) 
250

>  <qudt_units>  (344) 
http://www.openphacts.org/units/Nanomolar

>  <target_tax_id>  (344) 
9606

>  <bao_label>  (344) 
single protein format

>  <published_units>  (344) 
uM

>  <pchembl_value>  (344) 
6.6

>  <published_type>  (344) 
IC50

>  <activity_comment>  (344) 
None

$$$$

     RDKit          

 30 33  0  0  0  0  0  0  0  0999 V2000
    0.0000    0.0000    0.0000 C   0  0  0  0  0  0  0  0  0  0  0  0
    0.0000    0.0000    0.0000 O   0  0  0  0  0  0  0  0  0  0  0  0
    0.0000    0.0000    0.0000 C   0  0  0  0  0  0  0  0  0  0  0  0
    0.0000    0.0000    0.0000 C   0  0  0  0  0  0  0  0  0  0  0  0
    0.0000    0.0000    0.0000 C   0  0  0  0  0  0  0  0  0  0  0  0
    0.0000    0.0000    0.0000 C   0  0  0  0  0  0  0  0  0  0  0  0
    0.0000    0.0000    0.0000 C   0  0  0  0  0  0  0  0  0  0  0  0
    0.0000    0.0000    0.0000 C   0  0  0  0  0  0  0  0  0  0  0  0
    0.0000    0.0000    0.0000 C   0  0  0  0  0  0  0  0  0  0  0  0
    0.0000    0.0000    0.0000 C   0  0  0  0  0  0  0  0  0  0  0  0
    0.0000    0.0000    0.0000 C   0  0  0  0  0  0  0  0  0  0  0  0
    0.0000    0.0000    0.0000 C   0  0  0  0  0  0  0  0  0  0  0  0
    0.0000    0.0000    0.0000 C   0  0  0  0  0  0  0  0  0  0  0  0
    0.0000    0.0000    0.0000 C   0  0  0  0  0  0  0  0  0  0  0  0
    0.0000    0.0000    0.0000 C   0  0  0  0  0  0  0  0  0  0  0  0
    0.0000    0.0000    0.0000 C   0  0  0  0  0  0  0  0  0  0  0  0
    0.0000    0.0000    0.0000 C   0  0  0  0  0  0  0  0  0  0  0  0
    0.0000    0.0000    0.0000 C   0  0  0  0  0  0  0  0  0  0  0  0
    0.0000    0.0000    0.0000 C   0  0  0  0  0  0  0  0  0  0  0  0
    0.0000    0.0000    0.0000 C   0  0  0  0  0  0  0  0  0  0  0  0
    0.0000    0.0000    0.0000 O   0  0  0  0  0  0  0  0  0  0  0  0
    0.0000    0.0000    0.0000 S   0  0  0  0  0  0  0  0  0  0  0  0
    0.0000    0.0000    0.0000 O   0  0  0  0  0  0  0  0  0  0  0  0
    0.0000    0.0000    0.0000 O   0  0  0  0  0  0  0  0  0  0  0  0
    0.0000    0.0000    0.0000 N   0  0  0  0  0  0  0  0  0  0  0  0
    0.0000    0.0000    0.0000 O   0  0  0  0  0  0  0  0  0  0  0  0
    0.0000    0.0000    0.0000 S   0  0  0  0  0  0  0  0  0  0  0  0
    0.0000    0.0000    0.0000 O   0  0  0  0  0  0  0  0  0  0  0  0
    0.0000    0.0000    0.0000 O   0  0  0  0  0  0  0  0  0  0  0  0
    0.0000    0.0000    0.0000 N   0  0  0  0  0  0  0  0  0  0  0  0
  1  2  1  0
  2  3  1  0
  3  4  2  0
  4  5  1  0
  5  6  1  0
  6  7  1  0
  7  8  1  0
  8  9  1  0
  9 10  1  0
  9 11  1  0
 11 12  1  0
 12 13  1  0
 13 14  1  0
 14 15  1  0
 15 16  1  0
 16 17  1  0
 17 18  1  0
 18 19  1  0
 19 20  2  0
 20 21  1  0
 21 22  1  0
 22 23  2  0
 22 24  2  0
 22 25  1  0
 11 26  1  0
 26 27  1  0
 27 28  2  0
 27 29  2  0
 27 30  1  0
 20  3  1  0
 18  5  2  0
 15  6  1  0
 14  9  1  0
M  END
>  <pIC50>  (345) 
6.42

>  <ChEMBL_ID>  (345) 
CHEMBL218382

>  <document_journal>  (345) 
J. Med. Chem.

>  <bao_endpoint>  (345) 
BAO_0000190

>  <potential_duplicate>  (345) 
False

>  <uo_units>  (345) 
UO_0000065

>  <canonical_smiles>  (345) 
COc1cc2[C@H]3CC[C@]4(C)[C@H](CC[C@H]4[C@@H]3CCc2cc1OS(=O)(=O)N)OS(=O)(=O)N

>  <parent_molecule_chembl_id>  (345) 
CHEMBL218382

>  <assay_type>  (345) 
B

>  <src_id>  (345) 
1

>  <ligand_efficiency>  (345) 
{u'le': u'0.29', u'bei': u'13.94', u'sei': u'3.9', u'lle': u'4.46'}

>  <standard_flag>  (345) 
True

>  <molecule_chembl_id>  (345) 
CHEMBL218382

>  <target_organism>  (345) 
Homo sapiens

>  <standard_units>  (345) 
nM

>  <record_id>  (345) 
621815

>  <document_chembl_id>  (345) 
CHEMBL1138865

>  <bao_format>  (345) 
BAO_0000357

>  <data_validity_description>  (345) 
None

>  <activity_id>  (345) 
1805532

>  <standard_type>  (345) 
IC50

>  <target_chembl_id>  (345) 
CHEMBL205

>  <data_validity_comment>  (345) 
None

>  <published_value>  (345) 
379

>  <document_year>  (345) 
2006

>  <target_pref_name>  (345) 
Carbonic anhydrase II

>  <assay_chembl_id>  (345) 
CHEMBL911872

>  <standard_relation>  (345) 
=

>  <assay_description>  (345) 
Inhibition of human CA2

>  <published_relation>  (345) 
=

>  <standard_value>  (345) 
379

>  <qudt_units>  (345) 
http://www.openphacts.org/units/Nanomolar

>  <target_tax_id>  (345) 
9606

>  <bao_label>  (345) 
single protein format

>  <published_units>  (345) 
nM

>  <pchembl_value>  (345) 
6.42

>  <published_type>  (345) 
IC50

>  <activity_comment>  (345) 
None

$$$$

     RDKit          

 26 29  0  0  0  0  0  0  0  0999 V2000
    0.0000    0.0000    0.0000 C   0  0  0  0  0  0  0  0  0  0  0  0
    0.0000    0.0000    0.0000 O   0  0  0  0  0  0  0  0  0  0  0  0
    0.0000    0.0000    0.0000 C   0  0  0  0  0  0  0  0  0  0  0  0
    0.0000    0.0000    0.0000 C   0  0  0  0  0  0  0  0  0  0  0  0
    0.0000    0.0000    0.0000 C   0  0  0  0  0  0  0  0  0  0  0  0
    0.0000    0.0000    0.0000 C   0  0  0  0  0  0  0  0  0  0  0  0
    0.0000    0.0000    0.0000 C   0  0  0  0  0  0  0  0  0  0  0  0
    0.0000    0.0000    0.0000 C   0  0  0  0  0  0  0  0  0  0  0  0
    0.0000    0.0000    0.0000 C   0  0  0  0  0  0  0  0  0  0  0  0
    0.0000    0.0000    0.0000 C   0  0  0  0  0  0  0  0  0  0  0  0
    0.0000    0.0000    0.0000 C   0  0  0  0  0  0  0  0  0  0  0  0
    0.0000    0.0000    0.0000 C   0  0  0  0  0  0  0  0  0  0  0  0
    0.0000    0.0000    0.0000 C   0  0  0  0  0  0  0  0  0  0  0  0
    0.0000    0.0000    0.0000 C   0  0  0  0  0  0  0  0  0  0  0  0
    0.0000    0.0000    0.0000 C   0  0  0  0  0  0  0  0  0  0  0  0
    0.0000    0.0000    0.0000 C   0  0  0  0  0  0  0  0  0  0  0  0
    0.0000    0.0000    0.0000 C   0  0  0  0  0  0  0  0  0  0  0  0
    0.0000    0.0000    0.0000 C   0  0  0  0  0  0  0  0  0  0  0  0
    0.0000    0.0000    0.0000 C   0  0  0  0  0  0  0  0  0  0  0  0
    0.0000    0.0000    0.0000 C   0  0  0  0  0  0  0  0  0  0  0  0
    0.0000    0.0000    0.0000 O   0  0  0  0  0  0  0  0  0  0  0  0
    0.0000    0.0000    0.0000 O   0  0  0  0  0  0  0  0  0  0  0  0
    0.0000    0.0000    0.0000 S   0  0  0  0  0  0  0  0  0  0  0  0
    0.0000    0.0000    0.0000 O   0  0  0  0  0  0  0  0  0  0  0  0
    0.0000    0.0000    0.0000 O   0  0  0  0  0  0  0  0  0  0  0  0
    0.0000    0.0000    0.0000 N   0  0  0  0  0  0  0  0  0  0  0  0
  1  2  1  0
  2  3  1  0
  3  4  2  0
  4  5  1  0
  5  6  1  0
  6  7  1  0
  7  8  1  0
  8  9  1  0
  9 10  1  0
  9 11  1  0
 11 12  1  0
 12 13  1  0
 13 14  1  0
 14 15  1  0
 15 16  1  0
 16 17  1  0
 17 18  1  0
 18 19  1  0
 19 20  2  0
 20 21  1  0
 11 22  1  0
 22 23  1  0
 23 24  2  0
 23 25  2  0
 23 26  1  0
 20  3  1  0
 18  5  2  0
 15  6  1  0
 14  9  1  0
M  END
>  <pIC50>  (346) 
6.28

>  <ChEMBL_ID>  (346) 
CHEMBL374721

>  <document_journal>  (346) 
J. Med. Chem.

>  <bao_endpoint>  (346) 
BAO_0000190

>  <potential_duplicate>  (346) 
False

>  <uo_units>  (346) 
UO_0000065

>  <canonical_smiles>  (346) 
COc1cc2[C@H]3CC[C@]4(C)[C@H](CC[C@H]4[C@@H]3CCc2cc1O)OS(=O)(=O)N

>  <parent_molecule_chembl_id>  (346) 
CHEMBL374721

>  <assay_type>  (346) 
B

>  <src_id>  (346) 
1

>  <ligand_efficiency>  (346) 
{u'le': u'0.33', u'bei': u'16.46', u'sei': u'5.86', u'lle': u'3.3'}

>  <standard_flag>  (346) 
True

>  <molecule_chembl_id>  (346) 
CHEMBL374721

>  <target_organism>  (346) 
Homo sapiens

>  <standard_units>  (346) 
nM

>  <record_id>  (346) 
621818

>  <document_chembl_id>  (346) 
CHEMBL1138865

>  <bao_format>  (346) 
BAO_0000357

>  <data_validity_description>  (346) 
None

>  <activity_id>  (346) 
1805534

>  <standard_type>  (346) 
IC50

>  <target_chembl_id>  (346) 
CHEMBL205

>  <data_validity_comment>  (346) 
None

>  <published_value>  (346) 
526

>  <document_year>  (346) 
2006

>  <target_pref_name>  (346) 
Carbonic anhydrase II

>  <assay_chembl_id>  (346) 
CHEMBL911872

>  <standard_relation>  (346) 
=

>  <assay_description>  (346) 
Inhibition of human CA2

>  <published_relation>  (346) 
=

>  <standard_value>  (346) 
526

>  <qudt_units>  (346) 
http://www.openphacts.org/units/Nanomolar

>  <target_tax_id>  (346) 
9606

>  <bao_label>  (346) 
single protein format

>  <published_units>  (346) 
nM

>  <pchembl_value>  (346) 
6.28

>  <published_type>  (346) 
IC50

>  <activity_comment>  (346) 
None

$$$$

     RDKit          

 28 31  0  0  0  0  0  0  0  0999 V2000
    0.0000    0.0000    0.0000 C   0  0  0  0  0  0  0  0  0  0  0  0
    0.0000    0.0000    0.0000 O   0  0  0  0  0  0  0  0  0  0  0  0
    0.0000    0.0000    0.0000 C   0  0  0  0  0  0  0  0  0  0  0  0
    0.0000    0.0000    0.0000 C   0  0  0  0  0  0  0  0  0  0  0  0
    0.0000    0.0000    0.0000 C   0  0  0  0  0  0  0  0  0  0  0  0
    0.0000    0.0000    0.0000 C   0  0  0  0  0  0  0  0  0  0  0  0
    0.0000    0.0000    0.0000 C   0  0  0  0  0  0  0  0  0  0  0  0
    0.0000    0.0000    0.0000 C   0  0  0  0  0  0  0  0  0  0  0  0
    0.0000    0.0000    0.0000 C   0  0  0  0  0  0  0  0  0  0  0  0
    0.0000    0.0000    0.0000 C   0  0  0  0  0  0  0  0  0  0  0  0
    0.0000    0.0000    0.0000 C   0  0  0  0  0  0  0  0  0  0  0  0
    0.0000    0.0000    0.0000 C   0  0  0  0  0  0  0  0  0  0  0  0
    0.0000    0.0000    0.0000 C   0  0  0  0  0  0  0  0  0  0  0  0
    0.0000    0.0000    0.0000 N   0  0  0  0  0  0  0  0  0  0  0  0
    0.0000    0.0000    0.0000 C   0  0  0  0  0  0  0  0  0  0  0  0
    0.0000    0.0000    0.0000 C   0  0  0  0  0  0  0  0  0  0  0  0
    0.0000    0.0000    0.0000 C   0  0  0  0  0  0  0  0  0  0  0  0
    0.0000    0.0000    0.0000 C   0  0  0  0  0  0  0  0  0  0  0  0
    0.0000    0.0000    0.0000 C   0  0  0  0  0  0  0  0  0  0  0  0
    0.0000    0.0000    0.0000 C   0  0  0  0  0  0  0  0  0  0  0  0
    0.0000    0.0000    0.0000 C   0  0  0  0  0  0  0  0  0  0  0  0
    0.0000    0.0000    0.0000 C   0  0  0  0  0  0  0  0  0  0  0  0
    0.0000    0.0000    0.0000 C   0  0  0  0  0  0  0  0  0  0  0  0
    0.0000    0.0000    0.0000 O   0  0  0  0  0  0  0  0  0  0  0  0
    0.0000    0.0000    0.0000 S   0  0  0  0  0  0  0  0  0  0  0  0
    0.0000    0.0000    0.0000 O   0  0  0  0  0  0  0  0  0  0  0  0
    0.0000    0.0000    0.0000 O   0  0  0  0  0  0  0  0  0  0  0  0
    0.0000    0.0000    0.0000 N   0  0  0  0  0  0  0  0  0  0  0  0
  1  2  1  0
  2  3  1  0
  3  4  2  0
  4  5  1  0
  5  6  1  0
  6  7  1  0
  7  8  1  0
  8  9  1  0
  9 10  1  0
  9 11  1  0
 11 12  1  0
 12 13  1  0
 13 14  3  0
 11 15  1  0
 15 16  1  0
 16 17  1  0
 17 18  1  0
 18 19  1  0
 19 20  1  0
 20 21  1  0
 21 22  1  0
 22 23  2  0
 23 24  1  0
 24 25  1  0
 25 26  2  0
 25 27  2  0
 25 28  1  0
 23  3  1  0
 21  5  2  0
 18  6  1  0
 17  9  1  0
M  END
>  <pIC50>  (347) 
5.82

>  <ChEMBL_ID>  (347) 
CHEMBL408967

>  <document_journal>  (347) 
J. Med. Chem.

>  <bao_endpoint>  (347) 
BAO_0000190

>  <potential_duplicate>  (347) 
False

>  <uo_units>  (347) 
UO_0000065

>  <canonical_smiles>  (347) 
COc1cc2[C@H]3CC[C@]4(C)[C@@H](CC#N)CC[C@H]4[C@@H]3CCc2cc1OS(=O)(=O)N

>  <parent_molecule_chembl_id>  (347) 
CHEMBL408967

>  <assay_type>  (347) 
B

>  <src_id>  (347) 
1

>  <ligand_efficiency>  (347) 
{u'le': u'0.28', u'bei': u'14.4', u'sei': u'5.26', u'lle': u'2.24'}

>  <standard_flag>  (347) 
True

>  <molecule_chembl_id>  (347) 
CHEMBL408967

>  <target_organism>  (347) 
Homo sapiens

>  <standard_units>  (347) 
nM

>  <record_id>  (347) 
695033

>  <document_chembl_id>  (347) 
CHEMBL1142356

>  <bao_format>  (347) 
BAO_0000357

>  <data_validity_description>  (347) 
None

>  <activity_id>  (347) 
2108765

>  <standard_type>  (347) 
IC50

>  <target_chembl_id>  (347) 
CHEMBL205

>  <data_validity_comment>  (347) 
None

>  <published_value>  (347) 
1.5

>  <document_year>  (347) 
2008

>  <target_pref_name>  (347) 
Carbonic anhydrase II

>  <assay_chembl_id>  (347) 
CHEMBL948318

>  <standard_relation>  (347) 
=

>  <assay_description>  (347) 
Inhibition of human carbonic anhydrase 2

>  <published_relation>  (347) 
=

>  <standard_value>  (347) 
1500

>  <qudt_units>  (347) 
http://www.openphacts.org/units/Nanomolar

>  <target_tax_id>  (347) 
9606

>  <bao_label>  (347) 
single protein format

>  <published_units>  (347) 
uM

>  <pchembl_value>  (347) 
5.82

>  <published_type>  (347) 
IC50

>  <activity_comment>  (347) 
None

$$$$

     RDKit          

 26 29  0  0  0  0  0  0  0  0999 V2000
    0.0000    0.0000    0.0000 C   0  0  0  0  0  0  0  0  0  0  0  0
    0.0000    0.0000    0.0000 O   0  0  0  0  0  0  0  0  0  0  0  0
    0.0000    0.0000    0.0000 C   0  0  0  0  0  0  0  0  0  0  0  0
    0.0000    0.0000    0.0000 C   0  0  0  0  0  0  0  0  0  0  0  0
    0.0000    0.0000    0.0000 C   0  0  0  0  0  0  0  0  0  0  0  0
    0.0000    0.0000    0.0000 C   0  0  0  0  0  0  0  0  0  0  0  0
    0.0000    0.0000    0.0000 C   0  0  0  0  0  0  0  0  0  0  0  0
    0.0000    0.0000    0.0000 C   0  0  0  0  0  0  0  0  0  0  0  0
    0.0000    0.0000    0.0000 C   0  0  0  0  0  0  0  0  0  0  0  0
    0.0000    0.0000    0.0000 C   0  0  0  0  0  0  0  0  0  0  0  0
    0.0000    0.0000    0.0000 C   0  0  0  0  0  0  0  0  0  0  0  0
    0.0000    0.0000    0.0000 C   0  0  0  0  0  0  0  0  0  0  0  0
    0.0000    0.0000    0.0000 C   0  0  0  0  0  0  0  0  0  0  0  0
    0.0000    0.0000    0.0000 C   0  0  0  0  0  0  0  0  0  0  0  0
    0.0000    0.0000    0.0000 O   0  0  0  0  0  0  0  0  0  0  0  0
    0.0000    0.0000    0.0000 C   0  0  0  0  0  0  0  0  0  0  0  0
    0.0000    0.0000    0.0000 C   0  0  0  0  0  0  0  0  0  0  0  0
    0.0000    0.0000    0.0000 C   0  0  0  0  0  0  0  0  0  0  0  0
    0.0000    0.0000    0.0000 C   0  0  0  0  0  0  0  0  0  0  0  0
    0.0000    0.0000    0.0000 C   0  0  0  0  0  0  0  0  0  0  0  0
    0.0000    0.0000    0.0000 C   0  0  0  0  0  0  0  0  0  0  0  0
    0.0000    0.0000    0.0000 O   0  0  0  0  0  0  0  0  0  0  0  0
    0.0000    0.0000    0.0000 S   0  0  0  0  0  0  0  0  0  0  0  0
    0.0000    0.0000    0.0000 O   0  0  0  0  0  0  0  0  0  0  0  0
    0.0000    0.0000    0.0000 O   0  0  0  0  0  0  0  0  0  0  0  0
    0.0000    0.0000    0.0000 N   0  0  0  0  0  0  0  0  0  0  0  0
  1  2  1  0
  2  3  1  0
  3  4  2  0
  4  5  1  0
  5  6  1  0
  6  7  1  0
  7  8  1  0
  8  9  1  0
  9 10  1  0
  9 11  1  0
 11 12  1  0
 12 13  1  0
 13 14  1  0
 14 15  2  0
 11 16  1  0
 16 17  1  0
 17 18  1  0
 18 19  1  0
 19 20  1  0
 20 21  2  0
 21 22  1  0
 22 23  1  0
 23 24  2  0
 23 25  2  0
 23 26  1  0
 21  3  1  0
 19  5  2  0
 16  6  1  0
 14  9  1  0
M  END
>  <pIC50>  (348) 
6.43

>  <ChEMBL_ID>  (348) 
CHEMBL372231

>  <document_journal>  (348) 
J. Med. Chem.

>  <bao_endpoint>  (348) 
BAO_0000190

>  <potential_duplicate>  (348) 
False

>  <uo_units>  (348) 
UO_0000065

>  <canonical_smiles>  (348) 
COc1cc2[C@H]3CC[C@@]4(C)[C@@H](CCC4=O)[C@@H]3CCc2cc1OS(=O)(=O)N

>  <parent_molecule_chembl_id>  (348) 
CHEMBL372231

>  <assay_type>  (348) 
B

>  <src_id>  (348) 
1

>  <ligand_efficiency>  (348) 
{u'le': u'0.34', u'bei': u'16.93', u'sei': u'6.17', u'lle': u'3.52'}

>  <standard_flag>  (348) 
True

>  <molecule_chembl_id>  (348) 
CHEMBL372231

>  <target_organism>  (348) 
Homo sapiens

>  <standard_units>  (348) 
nM

>  <record_id>  (348) 
695051

>  <document_chembl_id>  (348) 
CHEMBL1142356

>  <bao_format>  (348) 
BAO_0000357

>  <data_validity_description>  (348) 
None

>  <activity_id>  (348) 
2108770

>  <standard_type>  (348) 
IC50

>  <target_chembl_id>  (348) 
CHEMBL205

>  <data_validity_comment>  (348) 
None

>  <published_value>  (348) 
376

>  <document_year>  (348) 
2008

>  <target_pref_name>  (348) 
Carbonic anhydrase II

>  <assay_chembl_id>  (348) 
CHEMBL948318

>  <standard_relation>  (348) 
=

>  <assay_description>  (348) 
Inhibition of human carbonic anhydrase 2

>  <published_relation>  (348) 
=

>  <standard_value>  (348) 
376

>  <qudt_units>  (348) 
http://www.openphacts.org/units/Nanomolar

>  <target_tax_id>  (348) 
9606

>  <bao_label>  (348) 
single protein format

>  <published_units>  (348) 
nM

>  <pchembl_value>  (348) 
6.43

>  <published_type>  (348) 
IC50

>  <activity_comment>  (348) 
None

$$$$

     RDKit          

 28 30  0  0  0  0  0  0  0  0999 V2000
    0.0000    0.0000    0.0000 O   0  0  0  0  0  0  0  0  0  0  0  0
    0.0000    0.0000    0.0000 C   0  0  0  0  0  0  0  0  0  0  0  0
    0.0000    0.0000    0.0000 O   0  0  0  0  0  0  0  0  0  0  0  0
    0.0000    0.0000    0.0000 C   0  0  0  0  0  0  0  0  0  0  0  0
    0.0000    0.0000    0.0000 C   0  0  0  0  0  0  0  0  0  0  0  0
    0.0000    0.0000    0.0000 C   0  0  0  0  0  0  0  0  0  0  0  0
    0.0000    0.0000    0.0000 C   0  0  0  0  0  0  0  0  0  0  0  0
    0.0000    0.0000    0.0000 C   0  0  0  0  0  0  0  0  0  0  0  0
    0.0000    0.0000    0.0000 C   0  0  0  0  0  0  0  0  0  0  0  0
    0.0000    0.0000    0.0000 O   0  0  0  0  0  0  0  0  0  0  0  0
    0.0000    0.0000    0.0000 N   0  0  0  0  0  0  0  0  0  0  0  0
    0.0000    0.0000    0.0000 N   0  0  0  0  0  0  0  0  0  0  0  0
    0.0000    0.0000    0.0000 C   0  0  0  0  0  0  0  0  0  0  0  0
    0.0000    0.0000    0.0000 C   0  0  0  0  0  0  0  0  0  0  0  0
    0.0000    0.0000    0.0000 C   0  0  0  0  0  0  0  0  0  0  0  0
    0.0000    0.0000    0.0000 C   0  0  0  0  0  0  0  0  0  0  0  0
    0.0000    0.0000    0.0000 C   0  0  0  0  0  0  0  0  0  0  0  0
    0.0000    0.0000    0.0000 C   0  0  0  0  0  0  0  0  0  0  0  0
    0.0000    0.0000    0.0000 S   0  0  0  0  0  0  0  0  0  0  0  0
    0.0000    0.0000    0.0000 O   0  0  0  0  0  0  0  0  0  0  0  0
    0.0000    0.0000    0.0000 O   0  0  0  0  0  0  0  0  0  0  0  0
    0.0000    0.0000    0.0000 N   0  0  0  0  0  0  0  0  0  0  0  0
    0.0000    0.0000    0.0000 C   0  0  0  0  0  0  0  0  0  0  0  0
    0.0000    0.0000    0.0000 C   0  0  0  0  0  0  0  0  0  0  0  0
    0.0000    0.0000    0.0000 C   0  0  0  0  0  0  0  0  0  0  0  0
    0.0000    0.0000    0.0000 C   0  0  0  0  0  0  0  0  0  0  0  0
    0.0000    0.0000    0.0000 C   0  0  0  0  0  0  0  0  0  0  0  0
    0.0000    0.0000    0.0000 N   0  0  0  0  0  0  0  0  0  0  0  0
  1  2  1  0
  2  3  2  0
  2  4  1  0
  4  5  2  0
  5  6  1  0
  6  7  2  0
  7  8  1  0
  8  9  2  0
  9 10  1  0
  6 11  1  0
 11 12  2  3
 12 13  1  0
 13 14  2  0
 14 15  1  0
 15 16  2  0
 16 17  1  0
 17 18  2  0
 16 19  1  0
 19 20  2  0
 19 21  2  0
 19 22  1  0
 22 23  1  0
 23 24  2  0
 24 25  1  0
 25 26  2  0
 26 27  1  0
 27 28  2  0
  9  4  1  0
 18 13  1  0
 28 23  1  0
M  END
>  <pIC50>  (349) 
5.35

>  <ChEMBL_ID>  (349) 
CHEMBL421

>  <document_journal>  (349) 
Bioorg. Med. Chem.

>  <bao_endpoint>  (349) 
BAO_0000190

>  <potential_duplicate>  (349) 
False

>  <uo_units>  (349) 
UO_0000065

>  <canonical_smiles>  (349) 
OC(=O)c1cc(ccc1O)N=Nc2ccc(cc2)S(=O)(=O)Nc3ccccn3

>  <parent_molecule_chembl_id>  (349) 
CHEMBL421

>  <assay_type>  (349) 
B

>  <src_id>  (349) 
1

>  <ligand_efficiency>  (349) 
{u'le': u'0.26', u'bei': u'13.42', u'sei': u'3.57', u'lle': u'1.89'}

>  <standard_flag>  (349) 
True

>  <molecule_chembl_id>  (349) 
CHEMBL421

>  <target_organism>  (349) 
Homo sapiens

>  <standard_units>  (349) 
nM

>  <record_id>  (349) 
803699

>  <document_chembl_id>  (349) 
CHEMBL1152236

>  <bao_format>  (349) 
BAO_0000357

>  <data_validity_description>  (349) 
None

>  <activity_id>  (349) 
2259038

>  <standard_type>  (349) 
IC50

>  <target_chembl_id>  (349) 
CHEMBL205

>  <data_validity_comment>  (349) 
None

>  <published_value>  (349) 
4.49

>  <document_year>  (349) 
2008

>  <target_pref_name>  (349) 
Carbonic anhydrase II

>  <assay_chembl_id>  (349) 
CHEMBL1002070

>  <standard_relation>  (349) 
=

>  <assay_description>  (349) 
Inhibition of human carbonic anhydrase 2 esterase activity by spectrophotometry

>  <published_relation>  (349) 
=

>  <standard_value>  (349) 
4490

>  <qudt_units>  (349) 
http://www.openphacts.org/units/Nanomolar

>  <target_tax_id>  (349) 
9606

>  <bao_label>  (349) 
single protein format

>  <published_units>  (349) 
uM

>  <pchembl_value>  (349) 
5.35

>  <published_type>  (349) 
IC50

>  <activity_comment>  (349) 
None

$$$$

     RDKit          

 18 19  0  0  0  0  0  0  0  0999 V2000
    0.0000    0.0000    0.0000 O   0  0  0  0  0  0  0  0  0  0  0  0
    0.0000    0.0000    0.0000 C   0  0  0  0  0  0  0  0  0  0  0  0
    0.0000    0.0000    0.0000 O   0  0  0  0  0  0  0  0  0  0  0  0
    0.0000    0.0000    0.0000 C   0  0  0  0  0  0  0  0  0  0  0  0
    0.0000    0.0000    0.0000 C   0  0  0  0  0  0  0  0  0  0  0  0
    0.0000    0.0000    0.0000 C   0  0  0  0  0  0  0  0  0  0  0  0
    0.0000    0.0000    0.0000 C   0  0  0  0  0  0  0  0  0  0  0  0
    0.0000    0.0000    0.0000 C   0  0  0  0  0  0  0  0  0  0  0  0
    0.0000    0.0000    0.0000 C   0  0  0  0  0  0  0  0  0  0  0  0
    0.0000    0.0000    0.0000 O   0  0  0  0  0  0  0  0  0  0  0  0
    0.0000    0.0000    0.0000 C   0  0  0  0  0  0  0  0  0  0  0  0
    0.0000    0.0000    0.0000 C   0  0  0  0  0  0  0  0  0  0  0  0
    0.0000    0.0000    0.0000 C   0  0  0  0  0  0  0  0  0  0  0  0
    0.0000    0.0000    0.0000 C   0  0  0  0  0  0  0  0  0  0  0  0
    0.0000    0.0000    0.0000 F   0  0  0  0  0  0  0  0  0  0  0  0
    0.0000    0.0000    0.0000 C   0  0  0  0  0  0  0  0  0  0  0  0
    0.0000    0.0000    0.0000 C   0  0  0  0  0  0  0  0  0  0  0  0
    0.0000    0.0000    0.0000 F   0  0  0  0  0  0  0  0  0  0  0  0
  1  2  1  0
  2  3  2  0
  2  4  1  0
  4  5  2  0
  5  6  1  0
  6  7  2  0
  7  8  1  0
  8  9  2  0
  9 10  1  0
  6 11  1  0
 11 12  2  0
 12 13  1  0
 13 14  2  0
 14 15  1  0
 14 16  1  0
 16 17  2  0
 17 18  1  0
  9  4  1  0
 17 11  1  0
M  END
>  <pIC50>  (350) 
5.57

>  <ChEMBL_ID>  (350) 
CHEMBL898

>  <document_journal>  (350) 
Bioorg. Med. Chem.

>  <bao_endpoint>  (350) 
BAO_0000190

>  <potential_duplicate>  (350) 
False

>  <uo_units>  (350) 
UO_0000065

>  <canonical_smiles>  (350) 
OC(=O)c1cc(ccc1O)c2ccc(F)cc2F

>  <parent_molecule_chembl_id>  (350) 
CHEMBL898

>  <assay_type>  (350) 
B

>  <src_id>  (350) 
1

>  <ligand_efficiency>  (350) 
{u'le': u'0.42', u'bei': u'22.26', u'sei': u'9.68', u'lle': u'2.42'}

>  <standard_flag>  (350) 
True

>  <molecule_chembl_id>  (350) 
CHEMBL898

>  <target_organism>  (350) 
Homo sapiens

>  <standard_units>  (350) 
nM

>  <record_id>  (350) 
803698

>  <document_chembl_id>  (350) 
CHEMBL1152236

>  <bao_format>  (350) 
BAO_0000357

>  <data_validity_description>  (350) 
None

>  <activity_id>  (350) 
2259039

>  <standard_type>  (350) 
IC50

>  <target_chembl_id>  (350) 
CHEMBL205

>  <data_validity_comment>  (350) 
None

>  <published_value>  (350) 
2.7

>  <document_year>  (350) 
2008

>  <target_pref_name>  (350) 
Carbonic anhydrase II

>  <assay_chembl_id>  (350) 
CHEMBL1002070

>  <standard_relation>  (350) 
=

>  <assay_description>  (350) 
Inhibition of human carbonic anhydrase 2 esterase activity by spectrophotometry

>  <published_relation>  (350) 
=

>  <standard_value>  (350) 
2700

>  <qudt_units>  (350) 
http://www.openphacts.org/units/Nanomolar

>  <target_tax_id>  (350) 
9606

>  <bao_label>  (350) 
single protein format

>  <published_units>  (350) 
uM

>  <pchembl_value>  (350) 
5.57

>  <published_type>  (350) 
IC50

>  <activity_comment>  (350) 
None

$$$$

     RDKit          

 16 16  0  0  0  0  0  0  0  0999 V2000
    0.0000    0.0000    0.0000 O   0  0  0  0  0  0  0  0  0  0  0  0
    0.0000    0.0000    0.0000 C   0  0  0  0  0  0  0  0  0  0  0  0
    0.0000    0.0000    0.0000 O   0  0  0  0  0  0  0  0  0  0  0  0
    0.0000    0.0000    0.0000 C   0  0  0  0  0  0  0  0  0  0  0  0
    0.0000    0.0000    0.0000 C   0  0  0  0  0  0  0  0  0  0  0  0
    0.0000    0.0000    0.0000 O   0  0  0  0  0  0  0  0  0  0  0  0
    0.0000    0.0000    0.0000 C   0  0  0  0  0  0  0  0  0  0  0  0
    0.0000    0.0000    0.0000 C   0  0  0  0  0  0  0  0  0  0  0  0
    0.0000    0.0000    0.0000 C   0  0  0  0  0  0  0  0  0  0  0  0
    0.0000    0.0000    0.0000 C   0  0  0  0  0  0  0  0  0  0  0  0
    0.0000    0.0000    0.0000 N   0  0  0  0  0  0  0  0  0  0  0  0
    0.0000    0.0000    0.0000 O   0  0  0  0  0  0  0  0  0  0  0  0
    0.0000    0.0000    0.0000 O   0  0  0  0  0  0  0  0  0  0  0  0
    0.0000    0.0000    0.0000 N   0  0  0  0  0  0  0  0  0  0  0  0
    0.0000    0.0000    0.0000 O   0  0  0  0  0  0  0  0  0  0  0  0
    0.0000    0.0000    0.0000 O   0  0  0  0  0  0  0  0  0  0  0  0
  1  2  1  0
  2  3  2  0
  2  4  1  0
  4  5  2  0
  5  6  1  0
  5  7  1  0
  7  8  2  0
  8  9  1  0
  9 10  2  0
 10 11  1  0
 11 12  2  0
 11 13  1  0
  8 14  1  0
 14 15  2  0
 14 16  1  0
 10  4  1  0
M  CHG  4  11   1  13  -1  14   1  16  -1
M  END
>  <pIC50>  (351) 
5.55

>  <ChEMBL_ID>  (351) 
CHEMBL447810

>  <document_journal>  (351) 
Bioorg. Med. Chem.

>  <bao_endpoint>  (351) 
BAO_0000190

>  <potential_duplicate>  (351) 
False

>  <uo_units>  (351) 
UO_0000065

>  <canonical_smiles>  (351) 
OC(=O)c1c(O)cc(cc1[N+](=O)[O-])[N+](=O)[O-]

>  <parent_molecule_chembl_id>  (351) 
CHEMBL447810

>  <assay_type>  (351) 
B

>  <src_id>  (351) 
1

>  <ligand_efficiency>  (351) 
{u'le': u'0.47', u'bei': u'24.34', u'sei': u'3.72', u'lle': u'4.54'}

>  <standard_flag>  (351) 
True

>  <molecule_chembl_id>  (351) 
CHEMBL447810

>  <target_organism>  (351) 
Homo sapiens

>  <standard_units>  (351) 
nM

>  <record_id>  (351) 
803696

>  <document_chembl_id>  (351) 
CHEMBL1152236

>  <bao_format>  (351) 
BAO_0000357

>  <data_validity_description>  (351) 
None

>  <activity_id>  (351) 
2259041

>  <standard_type>  (351) 
IC50

>  <target_chembl_id>  (351) 
CHEMBL205

>  <data_validity_comment>  (351) 
None

>  <published_value>  (351) 
2.8

>  <document_year>  (351) 
2008

>  <target_pref_name>  (351) 
Carbonic anhydrase II

>  <assay_chembl_id>  (351) 
CHEMBL1002070

>  <standard_relation>  (351) 
=

>  <assay_description>  (351) 
Inhibition of human carbonic anhydrase 2 esterase activity by spectrophotometry

>  <published_relation>  (351) 
=

>  <standard_value>  (351) 
2800

>  <qudt_units>  (351) 
http://www.openphacts.org/units/Nanomolar

>  <target_tax_id>  (351) 
9606

>  <bao_label>  (351) 
single protein format

>  <published_units>  (351) 
uM

>  <pchembl_value>  (351) 
5.55

>  <published_type>  (351) 
IC50

>  <activity_comment>  (351) 
None

$$$$

     RDKit          

 11 11  0  0  0  0  0  0  0  0999 V2000
    0.0000    0.0000    0.0000 O   0  0  0  0  0  0  0  0  0  0  0  0
    0.0000    0.0000    0.0000 C   0  0  0  0  0  0  0  0  0  0  0  0
    0.0000    0.0000    0.0000 O   0  0  0  0  0  0  0  0  0  0  0  0
    0.0000    0.0000    0.0000 C   0  0  0  0  0  0  0  0  0  0  0  0
    0.0000    0.0000    0.0000 C   0  0  0  0  0  0  0  0  0  0  0  0
    0.0000    0.0000    0.0000 C   0  0  0  0  0  0  0  0  0  0  0  0
    0.0000    0.0000    0.0000 Cl  0  0  0  0  0  0  0  0  0  0  0  0
    0.0000    0.0000    0.0000 C   0  0  0  0  0  0  0  0  0  0  0  0
    0.0000    0.0000    0.0000 C   0  0  0  0  0  0  0  0  0  0  0  0
    0.0000    0.0000    0.0000 C   0  0  0  0  0  0  0  0  0  0  0  0
    0.0000    0.0000    0.0000 O   0  0  0  0  0  0  0  0  0  0  0  0
  1  2  1  0
  2  3  2  0
  2  4  1  0
  4  5  2  0
  5  6  1  0
  6  7  1  0
  6  8  2  0
  8  9  1  0
  9 10  2  0
 10 11  1  0
 10  4  1  0
M  END
>  <pIC50>  (352) 
6.14

>  <ChEMBL_ID>  (352) 
CHEMBL1375

>  <document_journal>  (352) 
Bioorg. Med. Chem.

>  <bao_endpoint>  (352) 
BAO_0000190

>  <potential_duplicate>  (352) 
False

>  <uo_units>  (352) 
UO_0000065

>  <canonical_smiles>  (352) 
OC(=O)c1cc(Cl)ccc1O

>  <parent_molecule_chembl_id>  (352) 
CHEMBL1375

>  <assay_type>  (352) 
B

>  <src_id>  (352) 
1

>  <ligand_efficiency>  (352) 
{u'le': u'0.76', u'bei': u'35.6', u'sei': u'10.68', u'lle': u'4.26'}

>  <standard_flag>  (352) 
True

>  <molecule_chembl_id>  (352) 
CHEMBL1375

>  <target_organism>  (352) 
Homo sapiens

>  <standard_units>  (352) 
nM

>  <record_id>  (352) 
803695

>  <document_chembl_id>  (352) 
CHEMBL1152236

>  <bao_format>  (352) 
BAO_0000357

>  <data_validity_description>  (352) 
None

>  <activity_id>  (352) 
2259042

>  <standard_type>  (352) 
IC50

>  <target_chembl_id>  (352) 
CHEMBL205

>  <data_validity_comment>  (352) 
None

>  <published_value>  (352) 
0.72

>  <document_year>  (352) 
2008

>  <target_pref_name>  (352) 
Carbonic anhydrase II

>  <assay_chembl_id>  (352) 
CHEMBL1002070

>  <standard_relation>  (352) 
=

>  <assay_description>  (352) 
Inhibition of human carbonic anhydrase 2 esterase activity by spectrophotometry

>  <published_relation>  (352) 
=

>  <standard_value>  (352) 
720

>  <qudt_units>  (352) 
http://www.openphacts.org/units/Nanomolar

>  <target_tax_id>  (352) 
9606

>  <bao_label>  (352) 
single protein format

>  <published_units>  (352) 
uM

>  <pchembl_value>  (352) 
6.14

>  <published_type>  (352) 
IC50

>  <activity_comment>  (352) 
None

$$$$

     RDKit          

 11 12  0  0  0  0  0  0  0  0999 V2000
    0.0000    0.0000    0.0000 O   0  0  0  0  0  0  0  0  0  0  0  0
    0.0000    0.0000    0.0000 C   0  0  0  0  0  0  0  0  0  0  0  0
    0.0000    0.0000    0.0000 C   0  0  0  0  0  0  0  0  0  0  0  0
    0.0000    0.0000    0.0000 C   0  0  0  0  0  0  0  0  0  0  0  0
    0.0000    0.0000    0.0000 C   0  0  0  0  0  0  0  0  0  0  0  0
    0.0000    0.0000    0.0000 S   0  0  0  0  0  0  0  0  0  0  0  0
    0.0000    0.0000    0.0000 C   0  0  0  0  0  0  0  0  0  0  0  0
    0.0000    0.0000    0.0000 O   0  0  0  0  0  0  0  0  0  0  0  0
    0.0000    0.0000    0.0000 O   0  0  0  0  0  0  0  0  0  0  0  0
    0.0000    0.0000    0.0000 C   0  0  0  0  0  0  0  0  0  0  0  0
    0.0000    0.0000    0.0000 C   0  0  0  0  0  0  0  0  0  0  0  0
  1  2  1  0
  2  3  2  0
  3  4  1  0
  4  5  2  0
  5  6  1  0
  6  7  1  0
  7  8  2  0
  7  9  1  0
  9 10  1  0
 10 11  2  0
 11  2  1  0
 10  5  1  0
M  END
>  <pIC50>  (353) 
5.75

>  <ChEMBL_ID>  (353) 
CHEMBL442687

>  <document_journal>  (353) 
Bioorg. Med. Chem. Lett.

>  <bao_endpoint>  (353) 
BAO_0000190

>  <potential_duplicate>  (353) 
False

>  <uo_units>  (353) 
UO_0000065

>  <canonical_smiles>  (353) 
Oc1ccc2SC(=O)Oc2c1

>  <parent_molecule_chembl_id>  (353) 
CHEMBL442687

>  <assay_type>  (353) 
B

>  <src_id>  (353) 
1

>  <ligand_efficiency>  (353) 
{u'le': u'0.71', u'bei': u'34.2', u'sei': u'8.01', u'lle': u'3.45'}

>  <standard_flag>  (353) 
True

>  <molecule_chembl_id>  (353) 
CHEMBL442687

>  <target_organism>  (353) 
Homo sapiens

>  <standard_units>  (353) 
nM

>  <record_id>  (353) 
744134

>  <document_chembl_id>  (353) 
CHEMBL1155067

>  <bao_format>  (353) 
BAO_0000357

>  <data_validity_description>  (353) 
None

>  <activity_id>  (353) 
2456900

>  <standard_type>  (353) 
IC50

>  <target_chembl_id>  (353) 
CHEMBL205

>  <data_validity_comment>  (353) 
None

>  <published_value>  (353) 
1.77

>  <document_year>  (353) 
2008

>  <target_pref_name>  (353) 
Carbonic anhydrase II

>  <assay_chembl_id>  (353) 
CHEMBL1010313

>  <standard_relation>  (353) 
=

>  <assay_description>  (353) 
Inhibition of human recombinant carbonic anhydrase 2 assessed as activity of carbonic anhydrase 2 esterase activity against 4-nitrophenyl acetate

>  <published_relation>  (353) 
=

>  <standard_value>  (353) 
1770

>  <qudt_units>  (353) 
http://www.openphacts.org/units/Nanomolar

>  <target_tax_id>  (353) 
9606

>  <bao_label>  (353) 
single protein format

>  <published_units>  (353) 
uM

>  <pchembl_value>  (353) 
5.75

>  <published_type>  (353) 
IC50

>  <activity_comment>  (353) 
None

$$$$

     RDKit          

 46 51  0  0  0  0  0  0  0  0999 V2000
    0.0000    0.0000    0.0000 N   0  0  0  0  0  0  0  0  0  0  0  0
    0.0000    0.0000    0.0000 S   0  0  0  0  0  0  0  0  0  0  0  0
    0.0000    0.0000    0.0000 O   0  0  0  0  0  0  0  0  0  0  0  0
    0.0000    0.0000    0.0000 O   0  0  0  0  0  0  0  0  0  0  0  0
    0.0000    0.0000    0.0000 C   0  0  0  0  0  0  0  0  0  0  0  0
    0.0000    0.0000    0.0000 N   0  0  0  0  0  0  0  0  0  0  0  0
    0.0000    0.0000    0.0000 N   0  0  0  0  0  0  0  0  0  0  0  0
    0.0000    0.0000    0.0000 C   0  0  0  0  0  0  0  0  0  0  0  0
    0.0000    0.0000    0.0000 N   0  0  0  0  0  0  0  0  0  0  0  0
    0.0000    0.0000    0.0000 C   0  0  0  0  0  0  0  0  0  0  0  0
    0.0000    0.0000    0.0000 O   0  0  0  0  0  0  0  0  0  0  0  0
    0.0000    0.0000    0.0000 C   0  0  0  0  0  0  0  0  0  0  0  0
    0.0000    0.0000    0.0000 N   0  0  0  0  0  0  0  0  0  0  0  0
    0.0000    0.0000    0.0000 N   0  0  0  0  0  0  0  0  0  0  0  0
    0.0000    0.0000    0.0000 C   0  0  0  0  0  0  0  0  0  0  0  0
    0.0000    0.0000    0.0000 C   0  0  0  0  0  0  0  0  0  0  0  0
    0.0000    0.0000    0.0000 C   0  0  0  0  0  0  0  0  0  0  0  0
    0.0000    0.0000    0.0000 C   0  0  0  0  0  0  0  0  0  0  0  0
    0.0000    0.0000    0.0000 C   0  0  0  0  0  0  0  0  0  0  0  0
    0.0000    0.0000    0.0000 C   0  0  0  0  0  0  0  0  0  0  0  0
    0.0000    0.0000    0.0000 N   0  0  0  0  0  0  0  0  0  0  0  0
    0.0000    0.0000    0.0000 N   0  0  0  0  0  0  0  0  0  0  0  0
    0.0000    0.0000    0.0000 C   0  0  0  0  0  0  0  0  0  0  0  0
    0.0000    0.0000    0.0000 C   0  0  0  0  0  0  0  0  0  0  0  0
    0.0000    0.0000    0.0000 C   0  0  0  0  0  0  0  0  0  0  0  0
    0.0000    0.0000    0.0000 C   0  0  0  0  0  0  0  0  0  0  0  0
    0.0000    0.0000    0.0000 O   0  0  0  0  0  0  0  0  0  0  0  0
    0.0000    0.0000    0.0000 C   0  0  0  0  0  0  0  0  0  0  0  0
    0.0000    0.0000    0.0000 C   0  0  0  0  0  0  0  0  0  0  0  0
    0.0000    0.0000    0.0000 C   0  0  0  0  0  0  0  0  0  0  0  0
    0.0000    0.0000    0.0000 C   0  0  0  0  0  0  0  0  0  0  0  0
    0.0000    0.0000    0.0000 C   0  0  0  0  0  0  0  0  0  0  0  0
    0.0000    0.0000    0.0000 C   0  0  0  0  0  0  0  0  0  0  0  0
    0.0000    0.0000    0.0000 C   0  0  0  0  0  0  0  0  0  0  0  0
    0.0000    0.0000    0.0000 C   0  0  0  0  0  0  0  0  0  0  0  0
    0.0000    0.0000    0.0000 C   0  0  0  0  0  0  0  0  0  0  0  0
    0.0000    0.0000    0.0000 C   0  0  0  0  0  0  0  0  0  0  0  0
    0.0000    0.0000    0.0000 C   0  0  0  0  0  0  0  0  0  0  0  0
    0.0000    0.0000    0.0000 O   0  0  0  0  0  0  0  0  0  0  0  0
    0.0000    0.0000    0.0000 C   0  0  0  0  0  0  0  0  0  0  0  0
    0.0000    0.0000    0.0000 C   0  0  0  0  0  0  0  0  0  0  0  0
    0.0000    0.0000    0.0000 C   0  0  0  0  0  0  0  0  0  0  0  0
    0.0000    0.0000    0.0000 C   0  0  0  0  0  0  0  0  0  0  0  0
    0.0000    0.0000    0.0000 C   0  0  0  0  0  0  0  0  0  0  0  0
    0.0000    0.0000    0.0000 C   0  0  0  0  0  0  0  0  0  0  0  0
    0.0000    0.0000    0.0000 S   0  0  0  0  0  0  0  0  0  0  0  0
  1  2  1  0
  2  3  2  0
  2  4  2  0
  2  5  1  0
  5  6  2  0
  6  7  1  0
  7  8  2  0
  8  9  1  0
  9 10  1  0
 10 11  2  0
 10 12  1  0
 12 13  2  0
 13 14  1  0
 14 15  1  0
 15 16  2  0
 16 17  1  0
 17 18  2  0
 18 19  1  0
 19 20  2  0
 19 21  1  0
 21 22  2  3
 22 23  1  0
 23 24  2  0
 24 25  1  0
 25 26  2  0
 26 27  1  0
 26 28  1  0
 28 29  2  0
 14 30  1  0
 30 31  1  0
 31 32  2  0
 32 33  1  0
 33 34  2  0
 34 35  1  0
 35 36  2  0
 30 37  2  0
 37 38  1  0
 38 39  2  0
 38 40  1  0
 40 41  2  0
 41 42  1  0
 42 43  2  0
 43 44  1  0
 44 45  2  0
  8 46  1  0
 46  5  1  0
 37 12  1  0
 20 15  1  0
 29 23  1  0
 36 31  1  0
 45 40  1  0
M  END
>  <pIC50>  (354) 
7.53

>  <ChEMBL_ID>  (354) 
CHEMBL510182

>  <document_journal>  (354) 
Bioorg. Med. Chem.

>  <bao_endpoint>  (354) 
BAO_0000190

>  <potential_duplicate>  (354) 
False

>  <uo_units>  (354) 
UO_0000065

>  <canonical_smiles>  (354) 
NS(=O)(=O)c1nnc(NC(=O)c2nn(c3cccc(c3)N=Nc4ccc(O)cc4)c(c5ccccc5)c2C(=O)c6ccccc6)s1

>  <parent_molecule_chembl_id>  (354) 
CHEMBL510182

>  <assay_type>  (354) 
B

>  <src_id>  (354) 
1

>  <ligand_efficiency>  (354) 
{u'le': u'0.23', u'bei': u'11.77', u'sei': u'3.31', u'lle': u'1.33'}

>  <standard_flag>  (354) 
True

>  <molecule_chembl_id>  (354) 
CHEMBL510182

>  <target_organism>  (354) 
Homo sapiens

>  <standard_units>  (354) 
nM

>  <record_id>  (354) 
758793

>  <document_chembl_id>  (354) 
CHEMBL1139235

>  <bao_format>  (354) 
BAO_0000357

>  <data_validity_description>  (354) 
None

>  <activity_id>  (354) 
2620635

>  <standard_type>  (354) 
IC50

>  <target_chembl_id>  (354) 
CHEMBL205

>  <data_validity_comment>  (354) 
None

>  <published_value>  (354) 
0.022

>  <document_year>  (354) 
2009

>  <target_pref_name>  (354) 
Carbonic anhydrase II

>  <assay_chembl_id>  (354) 
CHEMBL975372

>  <standard_relation>  (354) 
=

>  <assay_description>  (354) 
Inhibition of esterase activity of human carbonic anhydrase 2 by CO2 hydration method

>  <published_relation>  (354) 
=

>  <standard_value>  (354) 
22

>  <qudt_units>  (354) 
http://www.openphacts.org/units/Nanomolar

>  <target_tax_id>  (354) 
9606

>  <bao_label>  (354) 
single protein format

>  <published_units>  (354) 
uM

>  <pchembl_value>  (354) 
7.66

>  <published_type>  (354) 
IC50

>  <activity_comment>  (354) 
None

$$$$

     RDKit          

 38 42  0  0  0  0  0  0  0  0999 V2000
    0.0000    0.0000    0.0000 N   0  0  0  0  0  0  0  0  0  0  0  0
    0.0000    0.0000    0.0000 S   0  0  0  0  0  0  0  0  0  0  0  0
    0.0000    0.0000    0.0000 O   0  0  0  0  0  0  0  0  0  0  0  0
    0.0000    0.0000    0.0000 O   0  0  0  0  0  0  0  0  0  0  0  0
    0.0000    0.0000    0.0000 C   0  0  0  0  0  0  0  0  0  0  0  0
    0.0000    0.0000    0.0000 N   0  0  0  0  0  0  0  0  0  0  0  0
    0.0000    0.0000    0.0000 N   0  0  0  0  0  0  0  0  0  0  0  0
    0.0000    0.0000    0.0000 C   0  0  0  0  0  0  0  0  0  0  0  0
    0.0000    0.0000    0.0000 N   0  0  0  0  0  0  0  0  0  0  0  0
    0.0000    0.0000    0.0000 C   0  0  0  0  0  0  0  0  0  0  0  0
    0.0000    0.0000    0.0000 O   0  0  0  0  0  0  0  0  0  0  0  0
    0.0000    0.0000    0.0000 C   0  0  0  0  0  0  0  0  0  0  0  0
    0.0000    0.0000    0.0000 N   0  0  0  0  0  0  0  0  0  0  0  0
    0.0000    0.0000    0.0000 N   0  0  0  0  0  0  0  0  0  0  0  0
    0.0000    0.0000    0.0000 C   0  0  0  0  0  0  0  0  0  0  0  0
    0.0000    0.0000    0.0000 C   0  0  0  0  0  0  0  0  0  0  0  0
    0.0000    0.0000    0.0000 C   0  0  0  0  0  0  0  0  0  0  0  0
    0.0000    0.0000    0.0000 C   0  0  0  0  0  0  0  0  0  0  0  0
    0.0000    0.0000    0.0000 C   0  0  0  0  0  0  0  0  0  0  0  0
    0.0000    0.0000    0.0000 O   0  0  0  0  0  0  0  0  0  0  0  0
    0.0000    0.0000    0.0000 C   0  0  0  0  0  0  0  0  0  0  0  0
    0.0000    0.0000    0.0000 C   0  0  0  0  0  0  0  0  0  0  0  0
    0.0000    0.0000    0.0000 C   0  0  0  0  0  0  0  0  0  0  0  0
    0.0000    0.0000    0.0000 C   0  0  0  0  0  0  0  0  0  0  0  0
    0.0000    0.0000    0.0000 C   0  0  0  0  0  0  0  0  0  0  0  0
    0.0000    0.0000    0.0000 C   0  0  0  0  0  0  0  0  0  0  0  0
    0.0000    0.0000    0.0000 C   0  0  0  0  0  0  0  0  0  0  0  0
    0.0000    0.0000    0.0000 C   0  0  0  0  0  0  0  0  0  0  0  0
    0.0000    0.0000    0.0000 C   0  0  0  0  0  0  0  0  0  0  0  0
    0.0000    0.0000    0.0000 C   0  0  0  0  0  0  0  0  0  0  0  0
    0.0000    0.0000    0.0000 O   0  0  0  0  0  0  0  0  0  0  0  0
    0.0000    0.0000    0.0000 C   0  0  0  0  0  0  0  0  0  0  0  0
    0.0000    0.0000    0.0000 C   0  0  0  0  0  0  0  0  0  0  0  0
    0.0000    0.0000    0.0000 C   0  0  0  0  0  0  0  0  0  0  0  0
    0.0000    0.0000    0.0000 C   0  0  0  0  0  0  0  0  0  0  0  0
    0.0000    0.0000    0.0000 C   0  0  0  0  0  0  0  0  0  0  0  0
    0.0000    0.0000    0.0000 C   0  0  0  0  0  0  0  0  0  0  0  0
    0.0000    0.0000    0.0000 S   0  0  0  0  0  0  0  0  0  0  0  0
  1  2  1  0
  2  3  2  0
  2  4  2  0
  2  5  1  0
  5  6  2  0
  6  7  1  0
  7  8  2  0
  8  9  1  0
  9 10  1  0
 10 11  2  0
 10 12  1  0
 12 13  2  0
 13 14  1  0
 14 15  1  0
 15 16  2  0
 16 17  1  0
 17 18  2  0
 18 19  1  0
 19 20  1  0
 19 21  2  0
 14 22  1  0
 22 23  1  0
 23 24  2  0
 24 25  1  0
 25 26  2  0
 26 27  1  0
 27 28  2  0
 22 29  2  0
 29 30  1  0
 30 31  2  0
 30 32  1  0
 32 33  2  0
 33 34  1  0
 34 35  2  0
 35 36  1  0
 36 37  2  0
  8 38  1  0
 38  5  1  0
 29 12  1  0
 21 15  1  0
 28 23  1  0
 37 32  1  0
M  END
>  <pIC50>  (355) 
7.295

>  <ChEMBL_ID>  (355) 
CHEMBL513659

>  <document_journal>  (355) 
Bioorg. Med. Chem.

>  <bao_endpoint>  (355) 
BAO_0000190

>  <potential_duplicate>  (355) 
False

>  <uo_units>  (355) 
UO_0000065

>  <canonical_smiles>  (355) 
NS(=O)(=O)c1nnc(NC(=O)c2nn(c3cccc(O)c3)c(c4ccccc4)c2C(=O)c5ccccc5)s1

>  <parent_molecule_chembl_id>  (355) 
CHEMBL513659

>  <assay_type>  (355) 
B

>  <src_id>  (355) 
1

>  <ligand_efficiency>  (355) 
{u'le': u'0.24', u'bei': u'12.05', u'sei': u'3.18', u'lle': u'2.63'}

>  <standard_flag>  (355) 
True

>  <molecule_chembl_id>  (355) 
CHEMBL513659

>  <target_organism>  (355) 
Homo sapiens

>  <standard_units>  (355) 
nM

>  <record_id>  (355) 
758792

>  <document_chembl_id>  (355) 
CHEMBL1139235

>  <bao_format>  (355) 
BAO_0000357

>  <data_validity_description>  (355) 
None

>  <activity_id>  (355) 
2620641

>  <standard_type>  (355) 
IC50

>  <target_chembl_id>  (355) 
CHEMBL205

>  <data_validity_comment>  (355) 
None

>  <published_value>  (355) 
0.26

>  <document_year>  (355) 
2009

>  <target_pref_name>  (355) 
Carbonic anhydrase II

>  <assay_chembl_id>  (355) 
CHEMBL975372

>  <standard_relation>  (355) 
=

>  <assay_description>  (355) 
Inhibition of esterase activity of human carbonic anhydrase 2 by CO2 hydration method

>  <published_relation>  (355) 
=

>  <standard_value>  (355) 
260

>  <qudt_units>  (355) 
http://www.openphacts.org/units/Nanomolar

>  <target_tax_id>  (355) 
9606

>  <bao_label>  (355) 
single protein format

>  <published_units>  (355) 
uM

>  <pchembl_value>  (355) 
6.59

>  <published_type>  (355) 
IC50

>  <activity_comment>  (355) 
None

$$$$

     RDKit          

 38 42  0  0  0  0  0  0  0  0999 V2000
    0.0000    0.0000    0.0000 N   0  0  0  0  0  0  0  0  0  0  0  0
    0.0000    0.0000    0.0000 S   0  0  0  0  0  0  0  0  0  0  0  0
    0.0000    0.0000    0.0000 O   0  0  0  0  0  0  0  0  0  0  0  0
    0.0000    0.0000    0.0000 O   0  0  0  0  0  0  0  0  0  0  0  0
    0.0000    0.0000    0.0000 C   0  0  0  0  0  0  0  0  0  0  0  0
    0.0000    0.0000    0.0000 N   0  0  0  0  0  0  0  0  0  0  0  0
    0.0000    0.0000    0.0000 N   0  0  0  0  0  0  0  0  0  0  0  0
    0.0000    0.0000    0.0000 C   0  0  0  0  0  0  0  0  0  0  0  0
    0.0000    0.0000    0.0000 N   0  0  0  0  0  0  0  0  0  0  0  0
    0.0000    0.0000    0.0000 C   0  0  0  0  0  0  0  0  0  0  0  0
    0.0000    0.0000    0.0000 O   0  0  0  0  0  0  0  0  0  0  0  0
    0.0000    0.0000    0.0000 C   0  0  0  0  0  0  0  0  0  0  0  0
    0.0000    0.0000    0.0000 N   0  0  0  0  0  0  0  0  0  0  0  0
    0.0000    0.0000    0.0000 N   0  0  0  0  0  0  0  0  0  0  0  0
    0.0000    0.0000    0.0000 C   0  0  0  0  0  0  0  0  0  0  0  0
    0.0000    0.0000    0.0000 C   0  0  0  0  0  0  0  0  0  0  0  0
    0.0000    0.0000    0.0000 C   0  0  0  0  0  0  0  0  0  0  0  0
    0.0000    0.0000    0.0000 C   0  0  0  0  0  0  0  0  0  0  0  0
    0.0000    0.0000    0.0000 C   0  0  0  0  0  0  0  0  0  0  0  0
    0.0000    0.0000    0.0000 I   0  0  0  0  0  0  0  0  0  0  0  0
    0.0000    0.0000    0.0000 C   0  0  0  0  0  0  0  0  0  0  0  0
    0.0000    0.0000    0.0000 C   0  0  0  0  0  0  0  0  0  0  0  0
    0.0000    0.0000    0.0000 C   0  0  0  0  0  0  0  0  0  0  0  0
    0.0000    0.0000    0.0000 C   0  0  0  0  0  0  0  0  0  0  0  0
    0.0000    0.0000    0.0000 C   0  0  0  0  0  0  0  0  0  0  0  0
    0.0000    0.0000    0.0000 C   0  0  0  0  0  0  0  0  0  0  0  0
    0.0000    0.0000    0.0000 C   0  0  0  0  0  0  0  0  0  0  0  0
    0.0000    0.0000    0.0000 C   0  0  0  0  0  0  0  0  0  0  0  0
    0.0000    0.0000    0.0000 C   0  0  0  0  0  0  0  0  0  0  0  0
    0.0000    0.0000    0.0000 C   0  0  0  0  0  0  0  0  0  0  0  0
    0.0000    0.0000    0.0000 O   0  0  0  0  0  0  0  0  0  0  0  0
    0.0000    0.0000    0.0000 C   0  0  0  0  0  0  0  0  0  0  0  0
    0.0000    0.0000    0.0000 C   0  0  0  0  0  0  0  0  0  0  0  0
    0.0000    0.0000    0.0000 C   0  0  0  0  0  0  0  0  0  0  0  0
    0.0000    0.0000    0.0000 C   0  0  0  0  0  0  0  0  0  0  0  0
    0.0000    0.0000    0.0000 C   0  0  0  0  0  0  0  0  0  0  0  0
    0.0000    0.0000    0.0000 C   0  0  0  0  0  0  0  0  0  0  0  0
    0.0000    0.0000    0.0000 S   0  0  0  0  0  0  0  0  0  0  0  0
  1  2  1  0
  2  3  2  0
  2  4  2  0
  2  5  1  0
  5  6  2  0
  6  7  1  0
  7  8  2  0
  8  9  1  0
  9 10  1  0
 10 11  2  0
 10 12  1  0
 12 13  2  0
 13 14  1  0
 14 15  1  0
 15 16  2  0
 16 17  1  0
 17 18  2  0
 18 19  1  0
 19 20  1  0
 19 21  2  0
 14 22  1  0
 22 23  1  0
 23 24  2  0
 24 25  1  0
 25 26  2  0
 26 27  1  0
 27 28  2  0
 22 29  2  0
 29 30  1  0
 30 31  2  0
 30 32  1  0
 32 33  2  0
 33 34  1  0
 34 35  2  0
 35 36  1  0
 36 37  2  0
  8 38  1  0
 38  5  1  0
 29 12  1  0
 21 15  1  0
 28 23  1  0
 37 32  1  0
M  END
>  <pIC50>  (356) 
6.665

>  <ChEMBL_ID>  (356) 
CHEMBL513820

>  <document_journal>  (356) 
Bioorg. Med. Chem.

>  <bao_endpoint>  (356) 
BAO_0000190

>  <potential_duplicate>  (356) 
False

>  <uo_units>  (356) 
UO_0000065

>  <canonical_smiles>  (356) 
NS(=O)(=O)c1nnc(NC(=O)c2nn(c3cccc(I)c3)c(c4ccccc4)c2C(=O)c5ccccc5)s1

>  <parent_molecule_chembl_id>  (356) 
CHEMBL513820

>  <assay_type>  (356) 
B

>  <src_id>  (356) 
1

>  <ligand_efficiency>  (356) 
{u'le': u'0.23', u'bei': u'9.82', u'sei': u'3.45', u'lle': u'1.66'}

>  <standard_flag>  (356) 
True

>  <molecule_chembl_id>  (356) 
CHEMBL513820

>  <target_organism>  (356) 
Homo sapiens

>  <standard_units>  (356) 
nM

>  <record_id>  (356) 
758660

>  <document_chembl_id>  (356) 
CHEMBL1139235

>  <bao_format>  (356) 
BAO_0000357

>  <data_validity_description>  (356) 
None

>  <activity_id>  (356) 
2620647

>  <standard_type>  (356) 
IC50

>  <target_chembl_id>  (356) 
CHEMBL205

>  <data_validity_comment>  (356) 
None

>  <published_value>  (356) 
0.36

>  <document_year>  (356) 
2009

>  <target_pref_name>  (356) 
Carbonic anhydrase II

>  <assay_chembl_id>  (356) 
CHEMBL975372

>  <standard_relation>  (356) 
=

>  <assay_description>  (356) 
Inhibition of esterase activity of human carbonic anhydrase 2 by CO2 hydration method

>  <published_relation>  (356) 
=

>  <standard_value>  (356) 
360

>  <qudt_units>  (356) 
http://www.openphacts.org/units/Nanomolar

>  <target_tax_id>  (356) 
9606

>  <bao_label>  (356) 
single protein format

>  <published_units>  (356) 
uM

>  <pchembl_value>  (356) 
6.44

>  <published_type>  (356) 
IC50

>  <activity_comment>  (356) 
None

$$$$

     RDKit          

 39 43  0  0  0  0  0  0  0  0999 V2000
    0.0000    0.0000    0.0000 N   0  0  0  0  0  0  0  0  0  0  0  0
    0.0000    0.0000    0.0000 S   0  0  0  0  0  0  0  0  0  0  0  0
    0.0000    0.0000    0.0000 O   0  0  0  0  0  0  0  0  0  0  0  0
    0.0000    0.0000    0.0000 O   0  0  0  0  0  0  0  0  0  0  0  0
    0.0000    0.0000    0.0000 C   0  0  0  0  0  0  0  0  0  0  0  0
    0.0000    0.0000    0.0000 N   0  0  0  0  0  0  0  0  0  0  0  0
    0.0000    0.0000    0.0000 N   0  0  0  0  0  0  0  0  0  0  0  0
    0.0000    0.0000    0.0000 C   0  0  0  0  0  0  0  0  0  0  0  0
    0.0000    0.0000    0.0000 N   0  0  0  0  0  0  0  0  0  0  0  0
    0.0000    0.0000    0.0000 C   0  0  0  0  0  0  0  0  0  0  0  0
    0.0000    0.0000    0.0000 O   0  0  0  0  0  0  0  0  0  0  0  0
    0.0000    0.0000    0.0000 C   0  0  0  0  0  0  0  0  0  0  0  0
    0.0000    0.0000    0.0000 N   0  0  0  0  0  0  0  0  0  0  0  0
    0.0000    0.0000    0.0000 N   0  0  0  0  0  0  0  0  0  0  0  0
    0.0000    0.0000    0.0000 C   0  0  0  0  0  0  0  0  0  0  0  0
    0.0000    0.0000    0.0000 C   0  0  0  0  0  0  0  0  0  0  0  0
    0.0000    0.0000    0.0000 C   0  0  0  0  0  0  0  0  0  0  0  0
    0.0000    0.0000    0.0000 C   0  0  0  0  0  0  0  0  0  0  0  0
    0.0000    0.0000    0.0000 C   0  0  0  0  0  0  0  0  0  0  0  0
    0.0000    0.0000    0.0000 C   0  0  0  0  0  0  0  0  0  0  0  0
    0.0000    0.0000    0.0000 C   0  0  0  0  0  0  0  0  0  0  0  0
    0.0000    0.0000    0.0000 N   0  0  0  0  0  0  0  0  0  0  0  0
    0.0000    0.0000    0.0000 C   0  0  0  0  0  0  0  0  0  0  0  0
    0.0000    0.0000    0.0000 C   0  0  0  0  0  0  0  0  0  0  0  0
    0.0000    0.0000    0.0000 C   0  0  0  0  0  0  0  0  0  0  0  0
    0.0000    0.0000    0.0000 C   0  0  0  0  0  0  0  0  0  0  0  0
    0.0000    0.0000    0.0000 C   0  0  0  0  0  0  0  0  0  0  0  0
    0.0000    0.0000    0.0000 C   0  0  0  0  0  0  0  0  0  0  0  0
    0.0000    0.0000    0.0000 C   0  0  0  0  0  0  0  0  0  0  0  0
    0.0000    0.0000    0.0000 C   0  0  0  0  0  0  0  0  0  0  0  0
    0.0000    0.0000    0.0000 C   0  0  0  0  0  0  0  0  0  0  0  0
    0.0000    0.0000    0.0000 O   0  0  0  0  0  0  0  0  0  0  0  0
    0.0000    0.0000    0.0000 C   0  0  0  0  0  0  0  0  0  0  0  0
    0.0000    0.0000    0.0000 C   0  0  0  0  0  0  0  0  0  0  0  0
    0.0000    0.0000    0.0000 C   0  0  0  0  0  0  0  0  0  0  0  0
    0.0000    0.0000    0.0000 C   0  0  0  0  0  0  0  0  0  0  0  0
    0.0000    0.0000    0.0000 C   0  0  0  0  0  0  0  0  0  0  0  0
    0.0000    0.0000    0.0000 C   0  0  0  0  0  0  0  0  0  0  0  0
    0.0000    0.0000    0.0000 S   0  0  0  0  0  0  0  0  0  0  0  0
  1  2  1  0
  2  3  2  0
  2  4  2  0
  2  5  1  0
  5  6  2  0
  6  7  1  0
  7  8  2  0
  8  9  1  0
  9 10  1  0
 10 11  2  0
 10 12  1  0
 12 13  2  0
 13 14  1  0
 14 15  1  0
 15 16  2  0
 16 17  1  0
 17 18  2  0
 18 19  1  0
 19 20  2  0
 19 21  1  0
 21 22  3  0
 14 23  1  0
 23 24  1  0
 24 25  2  0
 25 26  1  0
 26 27  2  0
 27 28  1  0
 28 29  2  0
 23 30  2  0
 30 31  1  0
 31 32  2  0
 31 33  1  0
 33 34  2  0
 34 35  1  0
 35 36  2  0
 36 37  1  0
 37 38  2  0
  8 39  1  0
 39  5  1  0
 30 12  1  0
 20 15  1  0
 29 24  1  0
 38 33  1  0
M  END
>  <pIC50>  (357) 
7.0

>  <ChEMBL_ID>  (357) 
CHEMBL466495

>  <document_journal>  (357) 
Bioorg. Med. Chem.

>  <bao_endpoint>  (357) 
BAO_0000190

>  <potential_duplicate>  (357) 
False

>  <uo_units>  (357) 
UO_0000065

>  <canonical_smiles>  (357) 
NS(=O)(=O)c1nnc(NC(=O)c2nn(c3cccc(c3)C#N)c(c4ccccc4)c2C(=O)c5ccccc5)s1

>  <parent_molecule_chembl_id>  (357) 
CHEMBL466495

>  <assay_type>  (357) 
B

>  <src_id>  (357) 
1

>  <ligand_efficiency>  (357) 
{u'le': u'0.23', u'bei': u'11.88', u'sei': u'3.14', u'lle': u'2.52'}

>  <standard_flag>  (357) 
True

>  <molecule_chembl_id>  (357) 
CHEMBL466495

>  <target_organism>  (357) 
Homo sapiens

>  <standard_units>  (357) 
nM

>  <record_id>  (357) 
758659

>  <document_chembl_id>  (357) 
CHEMBL1139235

>  <bao_format>  (357) 
BAO_0000357

>  <data_validity_description>  (357) 
None

>  <activity_id>  (357) 
2620653

>  <standard_type>  (357) 
IC50

>  <target_chembl_id>  (357) 
CHEMBL205

>  <data_validity_comment>  (357) 
None

>  <published_value>  (357) 
0.25

>  <document_year>  (357) 
2009

>  <target_pref_name>  (357) 
Carbonic anhydrase II

>  <assay_chembl_id>  (357) 
CHEMBL975372

>  <standard_relation>  (357) 
=

>  <assay_description>  (357) 
Inhibition of esterase activity of human carbonic anhydrase 2 by CO2 hydration method

>  <published_relation>  (357) 
=

>  <standard_value>  (357) 
250

>  <qudt_units>  (357) 
http://www.openphacts.org/units/Nanomolar

>  <target_tax_id>  (357) 
9606

>  <bao_label>  (357) 
single protein format

>  <published_units>  (357) 
uM

>  <pchembl_value>  (357) 
6.6

>  <published_type>  (357) 
IC50

>  <activity_comment>  (357) 
None

$$$$

     RDKit          

 50 54  0  0  0  0  0  0  0  0999 V2000
    0.0000    0.0000    0.0000 C   0  0  0  0  0  0  0  0  0  0  0  0
    0.0000    0.0000    0.0000 C   0  0  0  0  0  0  0  0  0  0  0  0
    0.0000    0.0000    0.0000 O   0  0  0  0  0  0  0  0  0  0  0  0
    0.0000    0.0000    0.0000 C   0  0  0  0  0  0  0  0  0  0  0  0
    0.0000    0.0000    0.0000 N   0  0  0  0  0  0  0  0  0  0  0  0
    0.0000    0.0000    0.0000 N   0  0  0  0  0  0  0  0  0  0  0  0
    0.0000    0.0000    0.0000 C   0  0  0  0  0  0  0  0  0  0  0  0
    0.0000    0.0000    0.0000 C   0  0  0  0  0  0  0  0  0  0  0  0
    0.0000    0.0000    0.0000 C   0  0  0  0  0  0  0  0  0  0  0  0
    0.0000    0.0000    0.0000 C   0  0  0  0  0  0  0  0  0  0  0  0
    0.0000    0.0000    0.0000 C   0  0  0  0  0  0  0  0  0  0  0  0
    0.0000    0.0000    0.0000 C   0  0  0  0  0  0  0  0  0  0  0  0
    0.0000    0.0000    0.0000 N   0  0  0  0  0  0  0  0  0  0  0  0
    0.0000    0.0000    0.0000 N   0  0  0  0  0  0  0  0  0  0  0  0
    0.0000    0.0000    0.0000 C   0  0  0  0  0  0  0  0  0  0  0  0
    0.0000    0.0000    0.0000 C   0  0  0  0  0  0  0  0  0  0  0  0
    0.0000    0.0000    0.0000 O   0  0  0  0  0  0  0  0  0  0  0  0
    0.0000    0.0000    0.0000 N   0  0  0  0  0  0  0  0  0  0  0  0
    0.0000    0.0000    0.0000 C   0  0  0  0  0  0  0  0  0  0  0  0
    0.0000    0.0000    0.0000 N   0  0  0  0  0  0  0  0  0  0  0  0
    0.0000    0.0000    0.0000 N   0  0  0  0  0  0  0  0  0  0  0  0
    0.0000    0.0000    0.0000 C   0  0  0  0  0  0  0  0  0  0  0  0
    0.0000    0.0000    0.0000 S   0  0  0  0  0  0  0  0  0  0  0  0
    0.0000    0.0000    0.0000 S   0  0  0  0  0  0  0  0  0  0  0  0
    0.0000    0.0000    0.0000 O   0  0  0  0  0  0  0  0  0  0  0  0
    0.0000    0.0000    0.0000 O   0  0  0  0  0  0  0  0  0  0  0  0
    0.0000    0.0000    0.0000 N   0  0  0  0  0  0  0  0  0  0  0  0
    0.0000    0.0000    0.0000 C   0  0  0  0  0  0  0  0  0  0  0  0
    0.0000    0.0000    0.0000 C   0  0  0  0  0  0  0  0  0  0  0  0
    0.0000    0.0000    0.0000 O   0  0  0  0  0  0  0  0  0  0  0  0
    0.0000    0.0000    0.0000 C   0  0  0  0  0  0  0  0  0  0  0  0
    0.0000    0.0000    0.0000 C   0  0  0  0  0  0  0  0  0  0  0  0
    0.0000    0.0000    0.0000 C   0  0  0  0  0  0  0  0  0  0  0  0
    0.0000    0.0000    0.0000 C   0  0  0  0  0  0  0  0  0  0  0  0
    0.0000    0.0000    0.0000 C   0  0  0  0  0  0  0  0  0  0  0  0
    0.0000    0.0000    0.0000 C   0  0  0  0  0  0  0  0  0  0  0  0
    0.0000    0.0000    0.0000 C   0  0  0  0  0  0  0  0  0  0  0  0
    0.0000    0.0000    0.0000 C   0  0  0  0  0  0  0  0  0  0  0  0
    0.0000    0.0000    0.0000 C   0  0  0  0  0  0  0  0  0  0  0  0
    0.0000    0.0000    0.0000 C   0  0  0  0  0  0  0  0  0  0  0  0
    0.0000    0.0000    0.0000 C   0  0  0  0  0  0  0  0  0  0  0  0
    0.0000    0.0000    0.0000 C   0  0  0  0  0  0  0  0  0  0  0  0
    0.0000    0.0000    0.0000 C   0  0  0  0  0  0  0  0  0  0  0  0
    0.0000    0.0000    0.0000 C   0  0  0  0  0  0  0  0  0  0  0  0
    0.0000    0.0000    0.0000 O   0  0  0  0  0  0  0  0  0  0  0  0
    0.0000    0.0000    0.0000 O   0  0  0  0  0  0  0  0  0  0  0  0
    0.0000    0.0000    0.0000 C   0  0  0  0  0  0  0  0  0  0  0  0
    0.0000    0.0000    0.0000 C   0  0  0  0  0  0  0  0  0  0  0  0
    0.0000    0.0000    0.0000 C   0  0  0  0  0  0  0  0  0  0  0  0
    0.0000    0.0000    0.0000 C   0  0  0  0  0  0  0  0  0  0  0  0
  1  2  1  0
  2  3  2  0
  2  4  1  0
  4  5  1  0
  5  6  2  3
  6  7  1  0
  7  8  2  0
  8  9  1  0
  9 10  2  0
 10 11  1  0
 11 12  2  0
 11 13  1  0
 13 14  1  0
 14 15  2  0
 15 16  1  0
 16 17  2  0
 16 18  1  0
 18 19  1  0
 19 20  2  0
 20 21  1  0
 21 22  2  0
 22 23  1  0
 22 24  1  0
 24 25  2  0
 24 26  2  0
 24 27  1  0
 15 28  1  0
 28 29  1  0
 29 30  2  0
 29 31  1  0
 31 32  2  0
 32 33  1  0
 33 34  2  0
 34 35  1  0
 35 36  2  0
 28 37  2  0
 37 38  1  0
 38 39  2  0
 39 40  1  0
 40 41  2  0
 41 42  1  0
 42 43  2  0
  4 44  1  0
 44 45  2  0
 44 46  1  0
 46 47  1  0
 47 48  1  0
 47 49  1  0
 47 50  1  0
 12  7  1  0
 37 13  1  0
 23 19  1  0
 36 31  1  0
 43 38  1  0
M  END
>  <pIC50>  (358) 
6.825

>  <ChEMBL_ID>  (358) 
CHEMBL507085

>  <document_journal>  (358) 
Bioorg. Med. Chem.

>  <bao_endpoint>  (358) 
BAO_0000190

>  <potential_duplicate>  (358) 
False

>  <uo_units>  (358) 
UO_0000065

>  <canonical_smiles>  (358) 
CC(=O)C(N=Nc1cccc(c1)n2nc(C(=O)Nc3nnc(s3)S(=O)(=O)N)c(C(=O)c4ccccc4)c2c5ccccc5)C(=O)OC(C)(C)C

>  <parent_molecule_chembl_id>  (358) 
CHEMBL507085

>  <assay_type>  (358) 
B

>  <src_id>  (358) 
1

>  <ligand_efficiency>  (358) 
{u'le': u'0.2', u'bei': u'10.16', u'sei': u'2.85', u'lle': u'1.69'}

>  <standard_flag>  (358) 
True

>  <molecule_chembl_id>  (358) 
CHEMBL507085

>  <target_organism>  (358) 
Homo sapiens

>  <standard_units>  (358) 
nM

>  <record_id>  (358) 
758658

>  <document_chembl_id>  (358) 
CHEMBL1139235

>  <bao_format>  (358) 
BAO_0000357

>  <data_validity_description>  (358) 
None

>  <activity_id>  (358) 
2620659

>  <standard_type>  (358) 
IC50

>  <target_chembl_id>  (358) 
CHEMBL205

>  <data_validity_comment>  (358) 
None

>  <published_value>  (358) 
0.055

>  <document_year>  (358) 
2009

>  <target_pref_name>  (358) 
Carbonic anhydrase II

>  <assay_chembl_id>  (358) 
CHEMBL975372

>  <standard_relation>  (358) 
=

>  <assay_description>  (358) 
Inhibition of esterase activity of human carbonic anhydrase 2 by CO2 hydration method

>  <published_relation>  (358) 
=

>  <standard_value>  (358) 
55

>  <qudt_units>  (358) 
http://www.openphacts.org/units/Nanomolar

>  <target_tax_id>  (358) 
9606

>  <bao_label>  (358) 
single protein format

>  <published_units>  (358) 
uM

>  <pchembl_value>  (358) 
7.26

>  <published_type>  (358) 
IC50

>  <activity_comment>  (358) 
None

$$$$

     RDKit          

 56 62  0  0  0  0  0  0  0  0999 V2000
    0.0000    0.0000    0.0000 N   0  0  0  0  0  0  0  0  0  0  0  0
    0.0000    0.0000    0.0000 S   0  0  0  0  0  0  0  0  0  0  0  0
    0.0000    0.0000    0.0000 O   0  0  0  0  0  0  0  0  0  0  0  0
    0.0000    0.0000    0.0000 O   0  0  0  0  0  0  0  0  0  0  0  0
    0.0000    0.0000    0.0000 C   0  0  0  0  0  0  0  0  0  0  0  0
    0.0000    0.0000    0.0000 N   0  0  0  0  0  0  0  0  0  0  0  0
    0.0000    0.0000    0.0000 N   0  0  0  0  0  0  0  0  0  0  0  0
    0.0000    0.0000    0.0000 C   0  0  0  0  0  0  0  0  0  0  0  0
    0.0000    0.0000    0.0000 N   0  0  0  0  0  0  0  0  0  0  0  0
    0.0000    0.0000    0.0000 C   0  0  0  0  0  0  0  0  0  0  0  0
    0.0000    0.0000    0.0000 O   0  0  0  0  0  0  0  0  0  0  0  0
    0.0000    0.0000    0.0000 C   0  0  0  0  0  0  0  0  0  0  0  0
    0.0000    0.0000    0.0000 N   0  0  0  0  0  0  0  0  0  0  0  0
    0.0000    0.0000    0.0000 N   0  0  0  0  0  0  0  0  0  0  0  0
    0.0000    0.0000    0.0000 C   0  0  0  0  0  0  0  0  0  0  0  0
    0.0000    0.0000    0.0000 C   0  0  0  0  0  0  0  0  0  0  0  0
    0.0000    0.0000    0.0000 C   0  0  0  0  0  0  0  0  0  0  0  0
    0.0000    0.0000    0.0000 C   0  0  0  0  0  0  0  0  0  0  0  0
    0.0000    0.0000    0.0000 C   0  0  0  0  0  0  0  0  0  0  0  0
    0.0000    0.0000    0.0000 C   0  0  0  0  0  0  0  0  0  0  0  0
    0.0000    0.0000    0.0000 N   0  0  0  0  0  0  0  0  0  0  0  0
    0.0000    0.0000    0.0000 N   0  0  0  0  0  0  0  0  0  0  0  0
    0.0000    0.0000    0.0000 C   0  0  0  0  0  0  0  0  0  0  0  0
    0.0000    0.0000    0.0000 C   0  0  0  0  0  0  0  0  0  0  0  0
    0.0000    0.0000    0.0000 O   0  0  0  0  0  0  0  0  0  0  0  0
    0.0000    0.0000    0.0000 C   0  0  0  0  0  0  0  0  0  0  0  0
    0.0000    0.0000    0.0000 C   0  0  0  0  0  0  0  0  0  0  0  0
    0.0000    0.0000    0.0000 C   0  0  0  0  0  0  0  0  0  0  0  0
    0.0000    0.0000    0.0000 C   0  0  0  0  0  0  0  0  0  0  0  0
    0.0000    0.0000    0.0000 C   0  0  0  0  0  0  0  0  0  0  0  0
    0.0000    0.0000    0.0000 C   0  0  0  0  0  0  0  0  0  0  0  0
    0.0000    0.0000    0.0000 C   0  0  0  0  0  0  0  0  0  0  0  0
    0.0000    0.0000    0.0000 O   0  0  0  0  0  0  0  0  0  0  0  0
    0.0000    0.0000    0.0000 C   0  0  0  0  0  0  0  0  0  0  0  0
    0.0000    0.0000    0.0000 C   0  0  0  0  0  0  0  0  0  0  0  0
    0.0000    0.0000    0.0000 C   0  0  0  0  0  0  0  0  0  0  0  0
    0.0000    0.0000    0.0000 C   0  0  0  0  0  0  0  0  0  0  0  0
    0.0000    0.0000    0.0000 C   0  0  0  0  0  0  0  0  0  0  0  0
    0.0000    0.0000    0.0000 C   0  0  0  0  0  0  0  0  0  0  0  0
    0.0000    0.0000    0.0000 C   0  0  0  0  0  0  0  0  0  0  0  0
    0.0000    0.0000    0.0000 C   0  0  0  0  0  0  0  0  0  0  0  0
    0.0000    0.0000    0.0000 C   0  0  0  0  0  0  0  0  0  0  0  0
    0.0000    0.0000    0.0000 C   0  0  0  0  0  0  0  0  0  0  0  0
    0.0000    0.0000    0.0000 C   0  0  0  0  0  0  0  0  0  0  0  0
    0.0000    0.0000    0.0000 C   0  0  0  0  0  0  0  0  0  0  0  0
    0.0000    0.0000    0.0000 C   0  0  0  0  0  0  0  0  0  0  0  0
    0.0000    0.0000    0.0000 C   0  0  0  0  0  0  0  0  0  0  0  0
    0.0000    0.0000    0.0000 C   0  0  0  0  0  0  0  0  0  0  0  0
    0.0000    0.0000    0.0000 O   0  0  0  0  0  0  0  0  0  0  0  0
    0.0000    0.0000    0.0000 C   0  0  0  0  0  0  0  0  0  0  0  0
    0.0000    0.0000    0.0000 C   0  0  0  0  0  0  0  0  0  0  0  0
    0.0000    0.0000    0.0000 C   0  0  0  0  0  0  0  0  0  0  0  0
    0.0000    0.0000    0.0000 C   0  0  0  0  0  0  0  0  0  0  0  0
    0.0000    0.0000    0.0000 C   0  0  0  0  0  0  0  0  0  0  0  0
    0.0000    0.0000    0.0000 C   0  0  0  0  0  0  0  0  0  0  0  0
    0.0000    0.0000    0.0000 S   0  0  0  0  0  0  0  0  0  0  0  0
  1  2  1  0
  2  3  2  0
  2  4  2  0
  2  5  1  0
  5  6  2  0
  6  7  1  0
  7  8  2  0
  8  9  1  0
  9 10  1  0
 10 11  2  0
 10 12  1  0
 12 13  2  0
 13 14  1  0
 14 15  1  0
 15 16  2  0
 16 17  1  0
 17 18  2  0
 18 19  1  0
 19 20  2  0
 19 21  1  0
 21 22  2  3
 22 23  1  0
 23 24  1  0
 24 25  2  0
 24 26  1  0
 26 27  2  0
 27 28  1  0
 28 29  2  0
 29 30  1  0
 30 31  2  0
 23 32  1  0
 32 33  2  0
 32 34  1  0
 34 35  2  0
 35 36  1  0
 36 37  2  0
 37 38  1  0
 38 39  2  0
 14 40  1  0
 40 41  1  0
 41 42  2  0
 42 43  1  0
 43 44  2  0
 44 45  1  0
 45 46  2  0
 40 47  2  0
 47 48  1  0
 48 49  2  0
 48 50  1  0
 50 51  2  0
 51 52  1  0
 52 53  2  0
 53 54  1  0
 54 55  2  0
  8 56  1  0
 56  5  1  0
 47 12  1  0
 20 15  1  0
 31 26  1  0
 39 34  1  0
 46 41  1  0
 55 50  1  0
M  END
>  <pIC50>  (359) 
7.18

>  <ChEMBL_ID>  (359) 
CHEMBL503194

>  <document_journal>  (359) 
Bioorg. Med. Chem.

>  <bao_endpoint>  (359) 
BAO_0000190

>  <potential_duplicate>  (359) 
False

>  <uo_units>  (359) 
UO_0000065

>  <canonical_smiles>  (359) 
NS(=O)(=O)c1nnc(NC(=O)c2nn(c3cccc(c3)N=NC(C(=O)c4ccccc4)C(=O)c5ccccc5)c(c6ccccc6)c2C(=O)c7ccccc7)s1

>  <parent_molecule_chembl_id>  (359) 
CHEMBL503194

>  <assay_type>  (359) 
B

>  <src_id>  (359) 
1

>  <ligand_efficiency>  (359) 
{u'le': u'0.19', u'bei': u'9.86', u'sei': u'3.14', u'lle': u'-0.16'}

>  <standard_flag>  (359) 
True

>  <molecule_chembl_id>  (359) 
CHEMBL503194

>  <target_organism>  (359) 
Homo sapiens

>  <standard_units>  (359) 
nM

>  <record_id>  (359) 
758657

>  <document_chembl_id>  (359) 
CHEMBL1139235

>  <bao_format>  (359) 
BAO_0000357

>  <data_validity_description>  (359) 
None

>  <activity_id>  (359) 
2620665

>  <standard_type>  (359) 
IC50

>  <target_chembl_id>  (359) 
CHEMBL205

>  <data_validity_comment>  (359) 
None

>  <published_value>  (359) 
0.02

>  <document_year>  (359) 
2009

>  <target_pref_name>  (359) 
Carbonic anhydrase II

>  <assay_chembl_id>  (359) 
CHEMBL975372

>  <standard_relation>  (359) 
=

>  <assay_description>  (359) 
Inhibition of esterase activity of human carbonic anhydrase 2 by CO2 hydration method

>  <published_relation>  (359) 
=

>  <standard_value>  (359) 
20

>  <qudt_units>  (359) 
http://www.openphacts.org/units/Nanomolar

>  <target_tax_id>  (359) 
9606

>  <bao_label>  (359) 
single protein format

>  <published_units>  (359) 
uM

>  <pchembl_value>  (359) 
7.7

>  <published_type>  (359) 
IC50

>  <activity_comment>  (359) 
None

$$$$

     RDKit          

 53 58  0  0  0  0  0  0  0  0999 V2000
    0.0000    0.0000    0.0000 C   0  0  0  0  0  0  0  0  0  0  0  0
    0.0000    0.0000    0.0000 C   0  0  0  0  0  0  0  0  0  0  0  0
    0.0000    0.0000    0.0000 O   0  0  0  0  0  0  0  0  0  0  0  0
    0.0000    0.0000    0.0000 C   0  0  0  0  0  0  0  0  0  0  0  0
    0.0000    0.0000    0.0000 O   0  0  0  0  0  0  0  0  0  0  0  0
    0.0000    0.0000    0.0000 C   0  0  0  0  0  0  0  0  0  0  0  0
    0.0000    0.0000    0.0000 N   0  0  0  0  0  0  0  0  0  0  0  0
    0.0000    0.0000    0.0000 N   0  0  0  0  0  0  0  0  0  0  0  0
    0.0000    0.0000    0.0000 C   0  0  0  0  0  0  0  0  0  0  0  0
    0.0000    0.0000    0.0000 C   0  0  0  0  0  0  0  0  0  0  0  0
    0.0000    0.0000    0.0000 C   0  0  0  0  0  0  0  0  0  0  0  0
    0.0000    0.0000    0.0000 C   0  0  0  0  0  0  0  0  0  0  0  0
    0.0000    0.0000    0.0000 C   0  0  0  0  0  0  0  0  0  0  0  0
    0.0000    0.0000    0.0000 C   0  0  0  0  0  0  0  0  0  0  0  0
    0.0000    0.0000    0.0000 N   0  0  0  0  0  0  0  0  0  0  0  0
    0.0000    0.0000    0.0000 N   0  0  0  0  0  0  0  0  0  0  0  0
    0.0000    0.0000    0.0000 C   0  0  0  0  0  0  0  0  0  0  0  0
    0.0000    0.0000    0.0000 C   0  0  0  0  0  0  0  0  0  0  0  0
    0.0000    0.0000    0.0000 O   0  0  0  0  0  0  0  0  0  0  0  0
    0.0000    0.0000    0.0000 N   0  0  0  0  0  0  0  0  0  0  0  0
    0.0000    0.0000    0.0000 C   0  0  0  0  0  0  0  0  0  0  0  0
    0.0000    0.0000    0.0000 N   0  0  0  0  0  0  0  0  0  0  0  0
    0.0000    0.0000    0.0000 N   0  0  0  0  0  0  0  0  0  0  0  0
    0.0000    0.0000    0.0000 C   0  0  0  0  0  0  0  0  0  0  0  0
    0.0000    0.0000    0.0000 S   0  0  0  0  0  0  0  0  0  0  0  0
    0.0000    0.0000    0.0000 S   0  0  0  0  0  0  0  0  0  0  0  0
    0.0000    0.0000    0.0000 O   0  0  0  0  0  0  0  0  0  0  0  0
    0.0000    0.0000    0.0000 O   0  0  0  0  0  0  0  0  0  0  0  0
    0.0000    0.0000    0.0000 N   0  0  0  0  0  0  0  0  0  0  0  0
    0.0000    0.0000    0.0000 C   0  0  0  0  0  0  0  0  0  0  0  0
    0.0000    0.0000    0.0000 C   0  0  0  0  0  0  0  0  0  0  0  0
    0.0000    0.0000    0.0000 O   0  0  0  0  0  0  0  0  0  0  0  0
    0.0000    0.0000    0.0000 C   0  0  0  0  0  0  0  0  0  0  0  0
    0.0000    0.0000    0.0000 C   0  0  0  0  0  0  0  0  0  0  0  0
    0.0000    0.0000    0.0000 C   0  0  0  0  0  0  0  0  0  0  0  0
    0.0000    0.0000    0.0000 C   0  0  0  0  0  0  0  0  0  0  0  0
    0.0000    0.0000    0.0000 C   0  0  0  0  0  0  0  0  0  0  0  0
    0.0000    0.0000    0.0000 C   0  0  0  0  0  0  0  0  0  0  0  0
    0.0000    0.0000    0.0000 C   0  0  0  0  0  0  0  0  0  0  0  0
    0.0000    0.0000    0.0000 C   0  0  0  0  0  0  0  0  0  0  0  0
    0.0000    0.0000    0.0000 C   0  0  0  0  0  0  0  0  0  0  0  0
    0.0000    0.0000    0.0000 C   0  0  0  0  0  0  0  0  0  0  0  0
    0.0000    0.0000    0.0000 C   0  0  0  0  0  0  0  0  0  0  0  0
    0.0000    0.0000    0.0000 C   0  0  0  0  0  0  0  0  0  0  0  0
    0.0000    0.0000    0.0000 C   0  0  0  0  0  0  0  0  0  0  0  0
    0.0000    0.0000    0.0000 C   0  0  0  0  0  0  0  0  0  0  0  0
    0.0000    0.0000    0.0000 O   0  0  0  0  0  0  0  0  0  0  0  0
    0.0000    0.0000    0.0000 C   0  0  0  0  0  0  0  0  0  0  0  0
    0.0000    0.0000    0.0000 C   0  0  0  0  0  0  0  0  0  0  0  0
    0.0000    0.0000    0.0000 C   0  0  0  0  0  0  0  0  0  0  0  0
    0.0000    0.0000    0.0000 C   0  0  0  0  0  0  0  0  0  0  0  0
    0.0000    0.0000    0.0000 C   0  0  0  0  0  0  0  0  0  0  0  0
    0.0000    0.0000    0.0000 C   0  0  0  0  0  0  0  0  0  0  0  0
  1  2  1  0
  2  3  1  0
  3  4  1  0
  4  5  2  0
  4  6  1  0
  6  7  1  0
  7  8  2  3
  8  9  1  0
  9 10  2  0
 10 11  1  0
 11 12  2  0
 12 13  1  0
 13 14  2  0
 13 15  1  0
 15 16  1  0
 16 17  2  0
 17 18  1  0
 18 19  2  0
 18 20  1  0
 20 21  1  0
 21 22  2  0
 22 23  1  0
 23 24  2  0
 24 25  1  0
 24 26  1  0
 26 27  2  0
 26 28  2  0
 26 29  1  0
 17 30  1  0
 30 31  1  0
 31 32  2  0
 31 33  1  0
 33 34  2  0
 34 35  1  0
 35 36  2  0
 36 37  1  0
 37 38  2  0
 30 39  2  0
 39 40  1  0
 40 41  2  0
 41 42  1  0
 42 43  2  0
 43 44  1  0
 44 45  2  0
  6 46  1  0
 46 47  2  0
 46 48  1  0
 48 49  2  0
 49 50  1  0
 50 51  2  0
 51 52  1  0
 52 53  2  0
 14  9  1  0
 39 15  1  0
 25 21  1  0
 38 33  1  0
 45 40  1  0
 53 48  1  0
M  END
>  <pIC50>  (360) 
6.81

>  <ChEMBL_ID>  (360) 
CHEMBL445982

>  <document_journal>  (360) 
Bioorg. Med. Chem.

>  <bao_endpoint>  (360) 
BAO_0000190

>  <potential_duplicate>  (360) 
False

>  <uo_units>  (360) 
UO_0000065

>  <canonical_smiles>  (360) 
CCOC(=O)C(N=Nc1cccc(c1)n2nc(C(=O)Nc3nnc(s3)S(=O)(=O)N)c(C(=O)c4ccccc4)c2c5ccccc5)C(=O)c6ccccc6

>  <parent_molecule_chembl_id>  (360) 
CHEMBL445982

>  <assay_type>  (360) 
B

>  <src_id>  (360) 
1

>  <ligand_efficiency>  (360) 
{u'le': u'0.19', u'bei': u'9.88', u'sei': u'2.91', u'lle': u'0.74'}

>  <standard_flag>  (360) 
True

>  <molecule_chembl_id>  (360) 
CHEMBL445982

>  <target_organism>  (360) 
Homo sapiens

>  <standard_units>  (360) 
nM

>  <record_id>  (360) 
758656

>  <document_chembl_id>  (360) 
CHEMBL1139235

>  <bao_format>  (360) 
BAO_0000357

>  <data_validity_description>  (360) 
None

>  <activity_id>  (360) 
2620671

>  <standard_type>  (360) 
IC50

>  <target_chembl_id>  (360) 
CHEMBL205

>  <data_validity_comment>  (360) 
None

>  <published_value>  (360) 
0.04

>  <document_year>  (360) 
2009

>  <target_pref_name>  (360) 
Carbonic anhydrase II

>  <assay_chembl_id>  (360) 
CHEMBL975372

>  <standard_relation>  (360) 
=

>  <assay_description>  (360) 
Inhibition of esterase activity of human carbonic anhydrase 2 by CO2 hydration method

>  <published_relation>  (360) 
=

>  <standard_value>  (360) 
40

>  <qudt_units>  (360) 
http://www.openphacts.org/units/Nanomolar

>  <target_tax_id>  (360) 
9606

>  <bao_label>  (360) 
single protein format

>  <published_units>  (360) 
uM

>  <pchembl_value>  (360) 
7.4

>  <published_type>  (360) 
IC50

>  <activity_comment>  (360) 
None

$$$$

     RDKit          

 50 54  0  0  0  0  0  0  0  0999 V2000
    0.0000    0.0000    0.0000 C   0  0  0  0  0  0  0  0  0  0  0  0
    0.0000    0.0000    0.0000 C   0  0  0  0  0  0  0  0  0  0  0  0
    0.0000    0.0000    0.0000 O   0  0  0  0  0  0  0  0  0  0  0  0
    0.0000    0.0000    0.0000 C   0  0  0  0  0  0  0  0  0  0  0  0
    0.0000    0.0000    0.0000 O   0  0  0  0  0  0  0  0  0  0  0  0
    0.0000    0.0000    0.0000 C   0  0  0  0  0  0  0  0  0  0  0  0
    0.0000    0.0000    0.0000 N   0  0  0  0  0  0  0  0  0  0  0  0
    0.0000    0.0000    0.0000 N   0  0  0  0  0  0  0  0  0  0  0  0
    0.0000    0.0000    0.0000 C   0  0  0  0  0  0  0  0  0  0  0  0
    0.0000    0.0000    0.0000 C   0  0  0  0  0  0  0  0  0  0  0  0
    0.0000    0.0000    0.0000 C   0  0  0  0  0  0  0  0  0  0  0  0
    0.0000    0.0000    0.0000 C   0  0  0  0  0  0  0  0  0  0  0  0
    0.0000    0.0000    0.0000 C   0  0  0  0  0  0  0  0  0  0  0  0
    0.0000    0.0000    0.0000 C   0  0  0  0  0  0  0  0  0  0  0  0
    0.0000    0.0000    0.0000 N   0  0  0  0  0  0  0  0  0  0  0  0
    0.0000    0.0000    0.0000 N   0  0  0  0  0  0  0  0  0  0  0  0
    0.0000    0.0000    0.0000 C   0  0  0  0  0  0  0  0  0  0  0  0
    0.0000    0.0000    0.0000 C   0  0  0  0  0  0  0  0  0  0  0  0
    0.0000    0.0000    0.0000 O   0  0  0  0  0  0  0  0  0  0  0  0
    0.0000    0.0000    0.0000 N   0  0  0  0  0  0  0  0  0  0  0  0
    0.0000    0.0000    0.0000 C   0  0  0  0  0  0  0  0  0  0  0  0
    0.0000    0.0000    0.0000 N   0  0  0  0  0  0  0  0  0  0  0  0
    0.0000    0.0000    0.0000 N   0  0  0  0  0  0  0  0  0  0  0  0
    0.0000    0.0000    0.0000 C   0  0  0  0  0  0  0  0  0  0  0  0
    0.0000    0.0000    0.0000 S   0  0  0  0  0  0  0  0  0  0  0  0
    0.0000    0.0000    0.0000 S   0  0  0  0  0  0  0  0  0  0  0  0
    0.0000    0.0000    0.0000 O   0  0  0  0  0  0  0  0  0  0  0  0
    0.0000    0.0000    0.0000 O   0  0  0  0  0  0  0  0  0  0  0  0
    0.0000    0.0000    0.0000 N   0  0  0  0  0  0  0  0  0  0  0  0
    0.0000    0.0000    0.0000 C   0  0  0  0  0  0  0  0  0  0  0  0
    0.0000    0.0000    0.0000 C   0  0  0  0  0  0  0  0  0  0  0  0
    0.0000    0.0000    0.0000 O   0  0  0  0  0  0  0  0  0  0  0  0
    0.0000    0.0000    0.0000 C   0  0  0  0  0  0  0  0  0  0  0  0
    0.0000    0.0000    0.0000 C   0  0  0  0  0  0  0  0  0  0  0  0
    0.0000    0.0000    0.0000 C   0  0  0  0  0  0  0  0  0  0  0  0
    0.0000    0.0000    0.0000 C   0  0  0  0  0  0  0  0  0  0  0  0
    0.0000    0.0000    0.0000 C   0  0  0  0  0  0  0  0  0  0  0  0
    0.0000    0.0000    0.0000 C   0  0  0  0  0  0  0  0  0  0  0  0
    0.0000    0.0000    0.0000 C   0  0  0  0  0  0  0  0  0  0  0  0
    0.0000    0.0000    0.0000 C   0  0  0  0  0  0  0  0  0  0  0  0
    0.0000    0.0000    0.0000 C   0  0  0  0  0  0  0  0  0  0  0  0
    0.0000    0.0000    0.0000 C   0  0  0  0  0  0  0  0  0  0  0  0
    0.0000    0.0000    0.0000 C   0  0  0  0  0  0  0  0  0  0  0  0
    0.0000    0.0000    0.0000 C   0  0  0  0  0  0  0  0  0  0  0  0
    0.0000    0.0000    0.0000 C   0  0  0  0  0  0  0  0  0  0  0  0
    0.0000    0.0000    0.0000 C   0  0  0  0  0  0  0  0  0  0  0  0
    0.0000    0.0000    0.0000 O   0  0  0  0  0  0  0  0  0  0  0  0
    0.0000    0.0000    0.0000 O   0  0  0  0  0  0  0  0  0  0  0  0
    0.0000    0.0000    0.0000 C   0  0  0  0  0  0  0  0  0  0  0  0
    0.0000    0.0000    0.0000 C   0  0  0  0  0  0  0  0  0  0  0  0
  1  2  1  0
  2  3  1  0
  3  4  1  0
  4  5  2  0
  4  6  1  0
  6  7  1  0
  7  8  2  3
  8  9  1  0
  9 10  2  0
 10 11  1  0
 11 12  2  0
 12 13  1  0
 13 14  2  0
 13 15  1  0
 15 16  1  0
 16 17  2  0
 17 18  1  0
 18 19  2  0
 18 20  1  0
 20 21  1  0
 21 22  2  0
 22 23  1  0
 23 24  2  0
 24 25  1  0
 24 26  1  0
 26 27  2  0
 26 28  2  0
 26 29  1  0
 17 30  1  0
 30 31  1  0
 31 32  2  0
 31 33  1  0
 33 34  2  0
 34 35  1  0
 35 36  2  0
 36 37  1  0
 37 38  2  0
 30 39  2  0
 39 40  1  0
 40 41  2  0
 41 42  1  0
 42 43  2  0
 43 44  1  0
 44 45  2  0
  6 46  1  0
 46 47  2  0
 46 48  1  0
 48 49  1  0
 49 50  1  0
 14  9  1  0
 39 15  1  0
 25 21  1  0
 38 33  1  0
 45 40  1  0
M  END
>  <pIC50>  (361) 
6.59

>  <ChEMBL_ID>  (361) 
CHEMBL499578

>  <document_journal>  (361) 
Bioorg. Med. Chem.

>  <bao_endpoint>  (361) 
BAO_0000190

>  <potential_duplicate>  (361) 
False

>  <uo_units>  (361) 
UO_0000065

>  <canonical_smiles>  (361) 
CCOC(=O)C(N=Nc1cccc(c1)n2nc(C(=O)Nc3nnc(s3)S(=O)(=O)N)c(C(=O)c4ccccc4)c2c5ccccc5)C(=O)OCC

>  <parent_molecule_chembl_id>  (361) 
CHEMBL499578

>  <assay_type>  (361) 
B

>  <src_id>  (361) 
1

>  <ligand_efficiency>  (361) 
{u'le': u'0.19', u'bei': u'9.8', u'sei': u'2.66', u'lle': u'1.57'}

>  <standard_flag>  (361) 
True

>  <molecule_chembl_id>  (361) 
CHEMBL499578

>  <target_organism>  (361) 
Homo sapiens

>  <standard_units>  (361) 
nM

>  <record_id>  (361) 
758655

>  <document_chembl_id>  (361) 
CHEMBL1139235

>  <bao_format>  (361) 
BAO_0000357

>  <data_validity_description>  (361) 
None

>  <activity_id>  (361) 
2620677

>  <standard_type>  (361) 
IC50

>  <target_chembl_id>  (361) 
CHEMBL205

>  <data_validity_comment>  (361) 
None

>  <published_value>  (361) 
0.094

>  <document_year>  (361) 
2009

>  <target_pref_name>  (361) 
Carbonic anhydrase II

>  <assay_chembl_id>  (361) 
CHEMBL975372

>  <standard_relation>  (361) 
=

>  <assay_description>  (361) 
Inhibition of esterase activity of human carbonic anhydrase 2 by CO2 hydration method

>  <published_relation>  (361) 
=

>  <standard_value>  (361) 
94

>  <qudt_units>  (361) 
http://www.openphacts.org/units/Nanomolar

>  <target_tax_id>  (361) 
9606

>  <bao_label>  (361) 
single protein format

>  <published_units>  (361) 
uM

>  <pchembl_value>  (361) 
7.03

>  <published_type>  (361) 
IC50

>  <activity_comment>  (361) 
None

$$$$

     RDKit          

 46 50  0  0  0  0  0  0  0  0999 V2000
    0.0000    0.0000    0.0000 C   0  0  0  0  0  0  0  0  0  0  0  0
    0.0000    0.0000    0.0000 C   0  0  0  0  0  0  0  0  0  0  0  0
    0.0000    0.0000    0.0000 O   0  0  0  0  0  0  0  0  0  0  0  0
    0.0000    0.0000    0.0000 C   0  0  0  0  0  0  0  0  0  0  0  0
    0.0000    0.0000    0.0000 N   0  0  0  0  0  0  0  0  0  0  0  0
    0.0000    0.0000    0.0000 N   0  0  0  0  0  0  0  0  0  0  0  0
    0.0000    0.0000    0.0000 C   0  0  0  0  0  0  0  0  0  0  0  0
    0.0000    0.0000    0.0000 C   0  0  0  0  0  0  0  0  0  0  0  0
    0.0000    0.0000    0.0000 C   0  0  0  0  0  0  0  0  0  0  0  0
    0.0000    0.0000    0.0000 C   0  0  0  0  0  0  0  0  0  0  0  0
    0.0000    0.0000    0.0000 C   0  0  0  0  0  0  0  0  0  0  0  0
    0.0000    0.0000    0.0000 C   0  0  0  0  0  0  0  0  0  0  0  0
    0.0000    0.0000    0.0000 N   0  0  0  0  0  0  0  0  0  0  0  0
    0.0000    0.0000    0.0000 N   0  0  0  0  0  0  0  0  0  0  0  0
    0.0000    0.0000    0.0000 C   0  0  0  0  0  0  0  0  0  0  0  0
    0.0000    0.0000    0.0000 C   0  0  0  0  0  0  0  0  0  0  0  0
    0.0000    0.0000    0.0000 O   0  0  0  0  0  0  0  0  0  0  0  0
    0.0000    0.0000    0.0000 N   0  0  0  0  0  0  0  0  0  0  0  0
    0.0000    0.0000    0.0000 C   0  0  0  0  0  0  0  0  0  0  0  0
    0.0000    0.0000    0.0000 N   0  0  0  0  0  0  0  0  0  0  0  0
    0.0000    0.0000    0.0000 N   0  0  0  0  0  0  0  0  0  0  0  0
    0.0000    0.0000    0.0000 C   0  0  0  0  0  0  0  0  0  0  0  0
    0.0000    0.0000    0.0000 S   0  0  0  0  0  0  0  0  0  0  0  0
    0.0000    0.0000    0.0000 S   0  0  0  0  0  0  0  0  0  0  0  0
    0.0000    0.0000    0.0000 O   0  0  0  0  0  0  0  0  0  0  0  0
    0.0000    0.0000    0.0000 O   0  0  0  0  0  0  0  0  0  0  0  0
    0.0000    0.0000    0.0000 N   0  0  0  0  0  0  0  0  0  0  0  0
    0.0000    0.0000    0.0000 C   0  0  0  0  0  0  0  0  0  0  0  0
    0.0000    0.0000    0.0000 C   0  0  0  0  0  0  0  0  0  0  0  0
    0.0000    0.0000    0.0000 O   0  0  0  0  0  0  0  0  0  0  0  0
    0.0000    0.0000    0.0000 C   0  0  0  0  0  0  0  0  0  0  0  0
    0.0000    0.0000    0.0000 C   0  0  0  0  0  0  0  0  0  0  0  0
    0.0000    0.0000    0.0000 C   0  0  0  0  0  0  0  0  0  0  0  0
    0.0000    0.0000    0.0000 C   0  0  0  0  0  0  0  0  0  0  0  0
    0.0000    0.0000    0.0000 C   0  0  0  0  0  0  0  0  0  0  0  0
    0.0000    0.0000    0.0000 C   0  0  0  0  0  0  0  0  0  0  0  0
    0.0000    0.0000    0.0000 C   0  0  0  0  0  0  0  0  0  0  0  0
    0.0000    0.0000    0.0000 C   0  0  0  0  0  0  0  0  0  0  0  0
    0.0000    0.0000    0.0000 C   0  0  0  0  0  0  0  0  0  0  0  0
    0.0000    0.0000    0.0000 C   0  0  0  0  0  0  0  0  0  0  0  0
    0.0000    0.0000    0.0000 C   0  0  0  0  0  0  0  0  0  0  0  0
    0.0000    0.0000    0.0000 C   0  0  0  0  0  0  0  0  0  0  0  0
    0.0000    0.0000    0.0000 C   0  0  0  0  0  0  0  0  0  0  0  0
    0.0000    0.0000    0.0000 C   0  0  0  0  0  0  0  0  0  0  0  0
    0.0000    0.0000    0.0000 O   0  0  0  0  0  0  0  0  0  0  0  0
    0.0000    0.0000    0.0000 C   0  0  0  0  0  0  0  0  0  0  0  0
  1  2  1  0
  2  3  2  0
  2  4  1  0
  4  5  1  0
  5  6  2  3
  6  7  1  0
  7  8  2  0
  8  9  1  0
  9 10  2  0
 10 11  1  0
 11 12  2  0
 11 13  1  0
 13 14  1  0
 14 15  2  0
 15 16  1  0
 16 17  2  0
 16 18  1  0
 18 19  1  0
 19 20  2  0
 20 21  1  0
 21 22  2  0
 22 23  1  0
 22 24  1  0
 24 25  2  0
 24 26  2  0
 24 27  1  0
 15 28  1  0
 28 29  1  0
 29 30  2  0
 29 31  1  0
 31 32  2  0
 32 33  1  0
 33 34  2  0
 34 35  1  0
 35 36  2  0
 28 37  2  0
 37 38  1  0
 38 39  2  0
 39 40  1  0
 40 41  2  0
 41 42  1  0
 42 43  2  0
  4 44  1  0
 44 45  2  0
 44 46  1  0
 12  7  1  0
 37 13  1  0
 23 19  1  0
 36 31  1  0
 43 38  1  0
M  END
>  <pIC50>  (362) 
6.91

>  <ChEMBL_ID>  (362) 
CHEMBL453931

>  <document_journal>  (362) 
Bioorg. Med. Chem.

>  <bao_endpoint>  (362) 
BAO_0000190

>  <potential_duplicate>  (362) 
False

>  <uo_units>  (362) 
UO_0000065

>  <canonical_smiles>  (362) 
CC(=O)C(N=Nc1cccc(c1)n2nc(C(=O)Nc3nnc(s3)S(=O)(=O)N)c(C(=O)c4ccccc4)c2c5ccccc5)C(=O)C

>  <parent_molecule_chembl_id>  (362) 
CHEMBL453931

>  <assay_type>  (362) 
B

>  <src_id>  (362) 
1

>  <ligand_efficiency>  (362) 
{u'le': u'0.2', u'bei': u'10.27', u'sei': u'2.75', u'lle': u'2.23'}

>  <standard_flag>  (362) 
True

>  <molecule_chembl_id>  (362) 
CHEMBL453931

>  <target_organism>  (362) 
Homo sapiens

>  <standard_units>  (362) 
nM

>  <record_id>  (362) 
758654

>  <document_chembl_id>  (362) 
CHEMBL1139235

>  <bao_format>  (362) 
BAO_0000357

>  <data_validity_description>  (362) 
None

>  <activity_id>  (362) 
2620683

>  <standard_type>  (362) 
IC50

>  <target_chembl_id>  (362) 
CHEMBL205

>  <data_validity_comment>  (362) 
None

>  <published_value>  (362) 
0.18

>  <document_year>  (362) 
2009

>  <target_pref_name>  (362) 
Carbonic anhydrase II

>  <assay_chembl_id>  (362) 
CHEMBL975372

>  <standard_relation>  (362) 
=

>  <assay_description>  (362) 
Inhibition of esterase activity of human carbonic anhydrase 2 by CO2 hydration method

>  <published_relation>  (362) 
=

>  <standard_value>  (362) 
180

>  <qudt_units>  (362) 
http://www.openphacts.org/units/Nanomolar

>  <target_tax_id>  (362) 
9606

>  <bao_label>  (362) 
single protein format

>  <published_units>  (362) 
uM

>  <pchembl_value>  (362) 
6.75

>  <published_type>  (362) 
IC50

>  <activity_comment>  (362) 
None

$$$$

     RDKit          

 51 56  0  0  0  0  0  0  0  0999 V2000
    0.0000    0.0000    0.0000 C   0  0  0  0  0  0  0  0  0  0  0  0
    0.0000    0.0000    0.0000 C   0  0  0  0  0  0  0  0  0  0  0  0
    0.0000    0.0000    0.0000 O   0  0  0  0  0  0  0  0  0  0  0  0
    0.0000    0.0000    0.0000 C   0  0  0  0  0  0  0  0  0  0  0  0
    0.0000    0.0000    0.0000 N   0  0  0  0  0  0  0  0  0  0  0  0
    0.0000    0.0000    0.0000 N   0  0  0  0  0  0  0  0  0  0  0  0
    0.0000    0.0000    0.0000 C   0  0  0  0  0  0  0  0  0  0  0  0
    0.0000    0.0000    0.0000 C   0  0  0  0  0  0  0  0  0  0  0  0
    0.0000    0.0000    0.0000 C   0  0  0  0  0  0  0  0  0  0  0  0
    0.0000    0.0000    0.0000 C   0  0  0  0  0  0  0  0  0  0  0  0
    0.0000    0.0000    0.0000 C   0  0  0  0  0  0  0  0  0  0  0  0
    0.0000    0.0000    0.0000 C   0  0  0  0  0  0  0  0  0  0  0  0
    0.0000    0.0000    0.0000 N   0  0  0  0  0  0  0  0  0  0  0  0
    0.0000    0.0000    0.0000 N   0  0  0  0  0  0  0  0  0  0  0  0
    0.0000    0.0000    0.0000 C   0  0  0  0  0  0  0  0  0  0  0  0
    0.0000    0.0000    0.0000 C   0  0  0  0  0  0  0  0  0  0  0  0
    0.0000    0.0000    0.0000 O   0  0  0  0  0  0  0  0  0  0  0  0
    0.0000    0.0000    0.0000 N   0  0  0  0  0  0  0  0  0  0  0  0
    0.0000    0.0000    0.0000 C   0  0  0  0  0  0  0  0  0  0  0  0
    0.0000    0.0000    0.0000 N   0  0  0  0  0  0  0  0  0  0  0  0
    0.0000    0.0000    0.0000 N   0  0  0  0  0  0  0  0  0  0  0  0
    0.0000    0.0000    0.0000 C   0  0  0  0  0  0  0  0  0  0  0  0
    0.0000    0.0000    0.0000 S   0  0  0  0  0  0  0  0  0  0  0  0
    0.0000    0.0000    0.0000 S   0  0  0  0  0  0  0  0  0  0  0  0
    0.0000    0.0000    0.0000 O   0  0  0  0  0  0  0  0  0  0  0  0
    0.0000    0.0000    0.0000 O   0  0  0  0  0  0  0  0  0  0  0  0
    0.0000    0.0000    0.0000 N   0  0  0  0  0  0  0  0  0  0  0  0
    0.0000    0.0000    0.0000 C   0  0  0  0  0  0  0  0  0  0  0  0
    0.0000    0.0000    0.0000 C   0  0  0  0  0  0  0  0  0  0  0  0
    0.0000    0.0000    0.0000 O   0  0  0  0  0  0  0  0  0  0  0  0
    0.0000    0.0000    0.0000 C   0  0  0  0  0  0  0  0  0  0  0  0
    0.0000    0.0000    0.0000 C   0  0  0  0  0  0  0  0  0  0  0  0
    0.0000    0.0000    0.0000 C   0  0  0  0  0  0  0  0  0  0  0  0
    0.0000    0.0000    0.0000 C   0  0  0  0  0  0  0  0  0  0  0  0
    0.0000    0.0000    0.0000 C   0  0  0  0  0  0  0  0  0  0  0  0
    0.0000    0.0000    0.0000 C   0  0  0  0  0  0  0  0  0  0  0  0
    0.0000    0.0000    0.0000 C   0  0  0  0  0  0  0  0  0  0  0  0
    0.0000    0.0000    0.0000 C   0  0  0  0  0  0  0  0  0  0  0  0
    0.0000    0.0000    0.0000 C   0  0  0  0  0  0  0  0  0  0  0  0
    0.0000    0.0000    0.0000 C   0  0  0  0  0  0  0  0  0  0  0  0
    0.0000    0.0000    0.0000 C   0  0  0  0  0  0  0  0  0  0  0  0
    0.0000    0.0000    0.0000 C   0  0  0  0  0  0  0  0  0  0  0  0
    0.0000    0.0000    0.0000 C   0  0  0  0  0  0  0  0  0  0  0  0
    0.0000    0.0000    0.0000 C   0  0  0  0  0  0  0  0  0  0  0  0
    0.0000    0.0000    0.0000 O   0  0  0  0  0  0  0  0  0  0  0  0
    0.0000    0.0000    0.0000 C   0  0  0  0  0  0  0  0  0  0  0  0
    0.0000    0.0000    0.0000 C   0  0  0  0  0  0  0  0  0  0  0  0
    0.0000    0.0000    0.0000 C   0  0  0  0  0  0  0  0  0  0  0  0
    0.0000    0.0000    0.0000 C   0  0  0  0  0  0  0  0  0  0  0  0
    0.0000    0.0000    0.0000 C   0  0  0  0  0  0  0  0  0  0  0  0
    0.0000    0.0000    0.0000 C   0  0  0  0  0  0  0  0  0  0  0  0
  1  2  1  0
  2  3  2  0
  2  4  1  0
  4  5  1  0
  5  6  2  3
  6  7  1  0
  7  8  2  0
  8  9  1  0
  9 10  2  0
 10 11  1  0
 11 12  2  0
 11 13  1  0
 13 14  1  0
 14 15  2  0
 15 16  1  0
 16 17  2  0
 16 18  1  0
 18 19  1  0
 19 20  2  0
 20 21  1  0
 21 22  2  0
 22 23  1  0
 22 24  1  0
 24 25  2  0
 24 26  2  0
 24 27  1  0
 15 28  1  0
 28 29  1  0
 29 30  2  0
 29 31  1  0
 31 32  2  0
 32 33  1  0
 33 34  2  0
 34 35  1  0
 35 36  2  0
 28 37  2  0
 37 38  1  0
 38 39  2  0
 39 40  1  0
 40 41  2  0
 41 42  1  0
 42 43  2  0
  4 44  1  0
 44 45  2  0
 44 46  1  0
 46 47  2  0
 47 48  1  0
 48 49  2  0
 49 50  1  0
 50 51  2  0
 12  7  1  0
 37 13  1  0
 23 19  1  0
 36 31  1  0
 43 38  1  0
 51 46  1  0
M  END
>  <pIC50>  (363) 
6.245

>  <ChEMBL_ID>  (363) 
CHEMBL444683

>  <document_journal>  (363) 
Bioorg. Med. Chem.

>  <bao_endpoint>  (363) 
BAO_0000190

>  <potential_duplicate>  (363) 
False

>  <uo_units>  (363) 
UO_0000065

>  <canonical_smiles>  (363) 
CC(=O)C(N=Nc1cccc(c1)n2nc(C(=O)Nc3nnc(s3)S(=O)(=O)N)c(C(=O)c4ccccc4)c2c5ccccc5)C(=O)c6ccccc6

>  <parent_molecule_chembl_id>  (363) 
CHEMBL444683

>  <assay_type>  (363) 
B

>  <src_id>  (363) 
1

>  <ligand_efficiency>  (363) 
{u'le': u'0.17', u'bei': u'8.71', u'sei': u'2.55', u'lle': u'0.08'}

>  <standard_flag>  (363) 
True

>  <molecule_chembl_id>  (363) 
CHEMBL444683

>  <target_organism>  (363) 
Homo sapiens

>  <standard_units>  (363) 
nM

>  <record_id>  (363) 
758653

>  <document_chembl_id>  (363) 
CHEMBL1139235

>  <bao_format>  (363) 
BAO_0000357

>  <data_validity_description>  (363) 
None

>  <activity_id>  (363) 
2620689

>  <standard_type>  (363) 
IC50

>  <target_chembl_id>  (363) 
CHEMBL205

>  <data_validity_comment>  (363) 
None

>  <published_value>  (363) 
0.55

>  <document_year>  (363) 
2009

>  <target_pref_name>  (363) 
Carbonic anhydrase II

>  <assay_chembl_id>  (363) 
CHEMBL975372

>  <standard_relation>  (363) 
=

>  <assay_description>  (363) 
Inhibition of esterase activity of human carbonic anhydrase 2 by CO2 hydration method

>  <published_relation>  (363) 
=

>  <standard_value>  (363) 
550

>  <qudt_units>  (363) 
http://www.openphacts.org/units/Nanomolar

>  <target_tax_id>  (363) 
9606

>  <bao_label>  (363) 
single protein format

>  <published_units>  (363) 
uM

>  <pchembl_value>  (363) 
6.26

>  <published_type>  (363) 
IC50

>  <activity_comment>  (363) 
None

$$$$

     RDKit          

 35 38  0  0  0  0  0  0  0  0999 V2000
    0.0000    0.0000    0.0000 C   0  0  0  0  0  0  0  0  0  0  0  0
    0.0000    0.0000    0.0000 C   0  0  0  0  0  0  0  0  0  0  0  0
    0.0000    0.0000    0.0000 O   0  0  0  0  0  0  0  0  0  0  0  0
    0.0000    0.0000    0.0000 C   0  0  0  0  0  0  0  0  0  0  0  0
    0.0000    0.0000    0.0000 O   0  0  0  0  0  0  0  0  0  0  0  0
    0.0000    0.0000    0.0000 C   0  0  0  0  0  0  0  0  0  0  0  0
    0.0000    0.0000    0.0000 C   0  0  0  0  0  0  0  0  0  0  0  0
    0.0000    0.0000    0.0000 N   0  0  0  0  0  0  0  0  0  0  0  0
    0.0000    0.0000    0.0000 N   0  0  0  0  0  0  0  0  0  0  0  0
    0.0000    0.0000    0.0000 C   0  0  0  0  0  0  0  0  0  0  0  0
    0.0000    0.0000    0.0000 C   0  0  0  0  0  0  0  0  0  0  0  0
    0.0000    0.0000    0.0000 C   0  0  0  0  0  0  0  0  0  0  0  0
    0.0000    0.0000    0.0000 C   0  0  0  0  0  0  0  0  0  0  0  0
    0.0000    0.0000    0.0000 N   0  0  0  0  0  0  0  0  0  0  0  0
    0.0000    0.0000    0.0000 C   0  0  0  0  0  0  0  0  0  0  0  0
    0.0000    0.0000    0.0000 C   0  0  0  0  0  0  0  0  0  0  0  0
    0.0000    0.0000    0.0000 C   0  0  0  0  0  0  0  0  0  0  0  0
    0.0000    0.0000    0.0000 C   0  0  0  0  0  0  0  0  0  0  0  0
    0.0000    0.0000    0.0000 C   0  0  0  0  0  0  0  0  0  0  0  0
    0.0000    0.0000    0.0000 C   0  0  0  0  0  0  0  0  0  0  0  0
    0.0000    0.0000    0.0000 C   0  0  0  0  0  0  0  0  0  0  0  0
    0.0000    0.0000    0.0000 C   0  0  0  0  0  0  0  0  0  0  0  0
    0.0000    0.0000    0.0000 C   0  0  0  0  0  0  0  0  0  0  0  0
    0.0000    0.0000    0.0000 C   0  0  0  0  0  0  0  0  0  0  0  0
    0.0000    0.0000    0.0000 O   0  0  0  0  0  0  0  0  0  0  0  0
    0.0000    0.0000    0.0000 N   0  0  0  0  0  0  0  0  0  0  0  0
    0.0000    0.0000    0.0000 C   0  0  0  0  0  0  0  0  0  0  0  0
    0.0000    0.0000    0.0000 N   0  0  0  0  0  0  0  0  0  0  0  0
    0.0000    0.0000    0.0000 N   0  0  0  0  0  0  0  0  0  0  0  0
    0.0000    0.0000    0.0000 C   0  0  0  0  0  0  0  0  0  0  0  0
    0.0000    0.0000    0.0000 S   0  0  0  0  0  0  0  0  0  0  0  0
    0.0000    0.0000    0.0000 S   0  0  0  0  0  0  0  0  0  0  0  0
    0.0000    0.0000    0.0000 O   0  0  0  0  0  0  0  0  0  0  0  0
    0.0000    0.0000    0.0000 O   0  0  0  0  0  0  0  0  0  0  0  0
    0.0000    0.0000    0.0000 N   0  0  0  0  0  0  0  0  0  0  0  0
  1  2  1  0
  2  3  1  0
  3  4  1  0
  4  5  2  0
  4  6  1  0
  6  7  1  0
  7  8  2  0
  8  9  1  0
  9 10  1  0
 10 11  2  0
 11 12  1  0
 12 13  2  0
 13 14  1  0
 13 15  1  0
 15 16  2  0
  9 17  1  0
 17 18  1  0
 18 19  2  0
 19 20  1  0
 20 21  2  0
 21 22  1  0
 22 23  2  0
  7 24  1  0
 24 25  2  0
 24 26  1  0
 26 27  1  0
 27 28  2  0
 28 29  1  0
 29 30  2  0
 30 31  1  0
 30 32  1  0
 32 33  2  0
 32 34  2  0
 32 35  1  0
 17  6  2  0
 16 10  1  0
 23 18  1  0
 31 27  1  0
M  END
>  <pIC50>  (364) 
7.46

>  <ChEMBL_ID>  (364) 
CHEMBL513122

>  <document_journal>  (364) 
Bioorg. Med. Chem.

>  <bao_endpoint>  (364) 
BAO_0000190

>  <potential_duplicate>  (364) 
False

>  <uo_units>  (364) 
UO_0000065

>  <canonical_smiles>  (364) 
CCOC(=O)c1c(nn(c2ccc(N)cc2)c1c3ccccc3)C(=O)Nc4nnc(s4)S(=O)(=O)N

>  <parent_molecule_chembl_id>  (364) 
CHEMBL513122

>  <assay_type>  (364) 
B

>  <src_id>  (364) 
1

>  <ligand_efficiency>  (364) 
{u'le': u'0.31', u'bei': u'15.23', u'sei': u'3.53', u'lle': u'5.56'}

>  <standard_flag>  (364) 
True

>  <molecule_chembl_id>  (364) 
CHEMBL513122

>  <target_organism>  (364) 
Homo sapiens

>  <standard_units>  (364) 
nM

>  <record_id>  (364) 
758652

>  <document_chembl_id>  (364) 
CHEMBL1139235

>  <bao_format>  (364) 
BAO_0000357

>  <data_validity_description>  (364) 
None

>  <activity_id>  (364) 
2620695

>  <standard_type>  (364) 
IC50

>  <target_chembl_id>  (364) 
CHEMBL205

>  <data_validity_comment>  (364) 
None

>  <published_value>  (364) 
0.015

>  <document_year>  (364) 
2009

>  <target_pref_name>  (364) 
Carbonic anhydrase II

>  <assay_chembl_id>  (364) 
CHEMBL975372

>  <standard_relation>  (364) 
=

>  <assay_description>  (364) 
Inhibition of esterase activity of human carbonic anhydrase 2 by CO2 hydration method

>  <published_relation>  (364) 
=

>  <standard_value>  (364) 
15

>  <qudt_units>  (364) 
http://www.openphacts.org/units/Nanomolar

>  <target_tax_id>  (364) 
9606

>  <bao_label>  (364) 
single protein format

>  <published_units>  (364) 
uM

>  <pchembl_value>  (364) 
7.82

>  <published_type>  (364) 
IC50

>  <activity_comment>  (364) 
None

$$$$

     RDKit          

 35 38  0  0  0  0  0  0  0  0999 V2000
    0.0000    0.0000    0.0000 C   0  0  0  0  0  0  0  0  0  0  0  0
    0.0000    0.0000    0.0000 C   0  0  0  0  0  0  0  0  0  0  0  0
    0.0000    0.0000    0.0000 O   0  0  0  0  0  0  0  0  0  0  0  0
    0.0000    0.0000    0.0000 C   0  0  0  0  0  0  0  0  0  0  0  0
    0.0000    0.0000    0.0000 O   0  0  0  0  0  0  0  0  0  0  0  0
    0.0000    0.0000    0.0000 C   0  0  0  0  0  0  0  0  0  0  0  0
    0.0000    0.0000    0.0000 C   0  0  0  0  0  0  0  0  0  0  0  0
    0.0000    0.0000    0.0000 N   0  0  0  0  0  0  0  0  0  0  0  0
    0.0000    0.0000    0.0000 N   0  0  0  0  0  0  0  0  0  0  0  0
    0.0000    0.0000    0.0000 C   0  0  0  0  0  0  0  0  0  0  0  0
    0.0000    0.0000    0.0000 C   0  0  0  0  0  0  0  0  0  0  0  0
    0.0000    0.0000    0.0000 C   0  0  0  0  0  0  0  0  0  0  0  0
    0.0000    0.0000    0.0000 C   0  0  0  0  0  0  0  0  0  0  0  0
    0.0000    0.0000    0.0000 C   0  0  0  0  0  0  0  0  0  0  0  0
    0.0000    0.0000    0.0000 N   0  0  0  0  0  0  0  0  0  0  0  0
    0.0000    0.0000    0.0000 C   0  0  0  0  0  0  0  0  0  0  0  0
    0.0000    0.0000    0.0000 C   0  0  0  0  0  0  0  0  0  0  0  0
    0.0000    0.0000    0.0000 C   0  0  0  0  0  0  0  0  0  0  0  0
    0.0000    0.0000    0.0000 C   0  0  0  0  0  0  0  0  0  0  0  0
    0.0000    0.0000    0.0000 C   0  0  0  0  0  0  0  0  0  0  0  0
    0.0000    0.0000    0.0000 C   0  0  0  0  0  0  0  0  0  0  0  0
    0.0000    0.0000    0.0000 C   0  0  0  0  0  0  0  0  0  0  0  0
    0.0000    0.0000    0.0000 C   0  0  0  0  0  0  0  0  0  0  0  0
    0.0000    0.0000    0.0000 C   0  0  0  0  0  0  0  0  0  0  0  0
    0.0000    0.0000    0.0000 O   0  0  0  0  0  0  0  0  0  0  0  0
    0.0000    0.0000    0.0000 N   0  0  0  0  0  0  0  0  0  0  0  0
    0.0000    0.0000    0.0000 C   0  0  0  0  0  0  0  0  0  0  0  0
    0.0000    0.0000    0.0000 N   0  0  0  0  0  0  0  0  0  0  0  0
    0.0000    0.0000    0.0000 N   0  0  0  0  0  0  0  0  0  0  0  0
    0.0000    0.0000    0.0000 C   0  0  0  0  0  0  0  0  0  0  0  0
    0.0000    0.0000    0.0000 S   0  0  0  0  0  0  0  0  0  0  0  0
    0.0000    0.0000    0.0000 S   0  0  0  0  0  0  0  0  0  0  0  0
    0.0000    0.0000    0.0000 O   0  0  0  0  0  0  0  0  0  0  0  0
    0.0000    0.0000    0.0000 O   0  0  0  0  0  0  0  0  0  0  0  0
    0.0000    0.0000    0.0000 N   0  0  0  0  0  0  0  0  0  0  0  0
  1  2  1  0
  2  3  1  0
  3  4  1  0
  4  5  2  0
  4  6  1  0
  6  7  1  0
  7  8  2  0
  8  9  1  0
  9 10  1  0
 10 11  2  0
 11 12  1  0
 12 13  2  0
 13 14  1  0
 14 15  1  0
 14 16  2  0
  9 17  1  0
 17 18  1  0
 18 19  2  0
 19 20  1  0
 20 21  2  0
 21 22  1  0
 22 23  2  0
  7 24  1  0
 24 25  2  0
 24 26  1  0
 26 27  1  0
 27 28  2  0
 28 29  1  0
 29 30  2  0
 30 31  1  0
 30 32  1  0
 32 33  2  0
 32 34  2  0
 32 35  1  0
 17  6  2  0
 16 10  1  0
 23 18  1  0
 31 27  1  0
M  END
>  <pIC50>  (365) 
7.575

>  <ChEMBL_ID>  (365) 
CHEMBL467098

>  <document_journal>  (365) 
Bioorg. Med. Chem.

>  <bao_endpoint>  (365) 
BAO_0000190

>  <potential_duplicate>  (365) 
False

>  <uo_units>  (365) 
UO_0000065

>  <canonical_smiles>  (365) 
CCOC(=O)c1c(nn(c2cccc(N)c2)c1c3ccccc3)C(=O)Nc4nnc(s4)S(=O)(=O)N

>  <parent_molecule_chembl_id>  (365) 
CHEMBL467098

>  <assay_type>  (365) 
B

>  <src_id>  (365) 
1

>  <ligand_efficiency>  (365) 
{u'le': u'0.31', u'bei': u'15.36', u'sei': u'3.56', u'lle': u'5.63'}

>  <standard_flag>  (365) 
True

>  <molecule_chembl_id>  (365) 
CHEMBL467098

>  <target_organism>  (365) 
Homo sapiens

>  <standard_units>  (365) 
nM

>  <record_id>  (365) 
758573

>  <document_chembl_id>  (365) 
CHEMBL1139235

>  <bao_format>  (365) 
BAO_0000357

>  <data_validity_description>  (365) 
None

>  <activity_id>  (365) 
2620700

>  <standard_type>  (365) 
IC50

>  <target_chembl_id>  (365) 
CHEMBL205

>  <data_validity_comment>  (365) 
None

>  <published_value>  (365) 
0.013

>  <document_year>  (365) 
2009

>  <target_pref_name>  (365) 
Carbonic anhydrase II

>  <assay_chembl_id>  (365) 
CHEMBL975372

>  <standard_relation>  (365) 
=

>  <assay_description>  (365) 
Inhibition of esterase activity of human carbonic anhydrase 2 by CO2 hydration method

>  <published_relation>  (365) 
=

>  <standard_value>  (365) 
13

>  <qudt_units>  (365) 
http://www.openphacts.org/units/Nanomolar

>  <target_tax_id>  (365) 
9606

>  <bao_label>  (365) 
single protein format

>  <published_units>  (365) 
uM

>  <pchembl_value>  (365) 
7.89

>  <published_type>  (365) 
IC50

>  <activity_comment>  (365) 
None

$$$$

     RDKit          

 38 42  0  0  0  0  0  0  0  0999 V2000
    0.0000    0.0000    0.0000 N   0  0  0  0  0  0  0  0  0  0  0  0
    0.0000    0.0000    0.0000 C   0  0  0  0  0  0  0  0  0  0  0  0
    0.0000    0.0000    0.0000 C   0  0  0  0  0  0  0  0  0  0  0  0
    0.0000    0.0000    0.0000 C   0  0  0  0  0  0  0  0  0  0  0  0
    0.0000    0.0000    0.0000 C   0  0  0  0  0  0  0  0  0  0  0  0
    0.0000    0.0000    0.0000 C   0  0  0  0  0  0  0  0  0  0  0  0
    0.0000    0.0000    0.0000 C   0  0  0  0  0  0  0  0  0  0  0  0
    0.0000    0.0000    0.0000 N   0  0  0  0  0  0  0  0  0  0  0  0
    0.0000    0.0000    0.0000 N   0  0  0  0  0  0  0  0  0  0  0  0
    0.0000    0.0000    0.0000 C   0  0  0  0  0  0  0  0  0  0  0  0
    0.0000    0.0000    0.0000 C   0  0  0  0  0  0  0  0  0  0  0  0
    0.0000    0.0000    0.0000 O   0  0  0  0  0  0  0  0  0  0  0  0
    0.0000    0.0000    0.0000 N   0  0  0  0  0  0  0  0  0  0  0  0
    0.0000    0.0000    0.0000 C   0  0  0  0  0  0  0  0  0  0  0  0
    0.0000    0.0000    0.0000 N   0  0  0  0  0  0  0  0  0  0  0  0
    0.0000    0.0000    0.0000 N   0  0  0  0  0  0  0  0  0  0  0  0
    0.0000    0.0000    0.0000 C   0  0  0  0  0  0  0  0  0  0  0  0
    0.0000    0.0000    0.0000 S   0  0  0  0  0  0  0  0  0  0  0  0
    0.0000    0.0000    0.0000 S   0  0  0  0  0  0  0  0  0  0  0  0
    0.0000    0.0000    0.0000 O   0  0  0  0  0  0  0  0  0  0  0  0
    0.0000    0.0000    0.0000 O   0  0  0  0  0  0  0  0  0  0  0  0
    0.0000    0.0000    0.0000 N   0  0  0  0  0  0  0  0  0  0  0  0
    0.0000    0.0000    0.0000 C   0  0  0  0  0  0  0  0  0  0  0  0
    0.0000    0.0000    0.0000 C   0  0  0  0  0  0  0  0  0  0  0  0
    0.0000    0.0000    0.0000 O   0  0  0  0  0  0  0  0  0  0  0  0
    0.0000    0.0000    0.0000 C   0  0  0  0  0  0  0  0  0  0  0  0
    0.0000    0.0000    0.0000 C   0  0  0  0  0  0  0  0  0  0  0  0
    0.0000    0.0000    0.0000 C   0  0  0  0  0  0  0  0  0  0  0  0
    0.0000    0.0000    0.0000 C   0  0  0  0  0  0  0  0  0  0  0  0
    0.0000    0.0000    0.0000 C   0  0  0  0  0  0  0  0  0  0  0  0
    0.0000    0.0000    0.0000 C   0  0  0  0  0  0  0  0  0  0  0  0
    0.0000    0.0000    0.0000 C   0  0  0  0  0  0  0  0  0  0  0  0
    0.0000    0.0000    0.0000 C   0  0  0  0  0  0  0  0  0  0  0  0
    0.0000    0.0000    0.0000 C   0  0  0  0  0  0  0  0  0  0  0  0
    0.0000    0.0000    0.0000 C   0  0  0  0  0  0  0  0  0  0  0  0
    0.0000    0.0000    0.0000 C   0  0  0  0  0  0  0  0  0  0  0  0
    0.0000    0.0000    0.0000 C   0  0  0  0  0  0  0  0  0  0  0  0
    0.0000    0.0000    0.0000 C   0  0  0  0  0  0  0  0  0  0  0  0
  1  2  1  0
  2  3  2  0
  3  4  1  0
  4  5  2  0
  5  6  1  0
  6  7  2  0
  5  8  1  0
  8  9  1  0
  9 10  2  0
 10 11  1  0
 11 12  2  0
 11 13  1  0
 13 14  1  0
 14 15  2  0
 15 16  1  0
 16 17  2  0
 17 18  1  0
 17 19  1  0
 19 20  2  0
 19 21  2  0
 19 22  1  0
 10 23  1  0
 23 24  1  0
 24 25  2  0
 24 26  1  0
 26 27  2  0
 27 28  1  0
 28 29  2  0
 29 30  1  0
 30 31  2  0
 23 32  2  0
 32 33  1  0
 33 34  2  0
 34 35  1  0
 35 36  2  0
 36 37  1  0
 37 38  2  0
  7  2  1  0
 32  8  1  0
 18 14  1  0
 31 26  1  0
 38 33  1  0
M  END
>  <pIC50>  (366) 
5.59

>  <ChEMBL_ID>  (366) 
CHEMBL513141

>  <document_journal>  (366) 
Bioorg. Med. Chem.

>  <bao_endpoint>  (366) 
BAO_0000190

>  <potential_duplicate>  (366) 
False

>  <uo_units>  (366) 
UO_0000065

>  <canonical_smiles>  (366) 
Nc1ccc(cc1)n2nc(C(=O)Nc3nnc(s3)S(=O)(=O)N)c(C(=O)c4ccccc4)c2c5ccccc5

>  <parent_molecule_chembl_id>  (366) 
CHEMBL513141

>  <assay_type>  (366) 
B

>  <src_id>  (366) 
1

>  <ligand_efficiency>  (366) 
{u'le': u'0.19', u'bei': u'9.85', u'sei': u'2.53', u'lle': u'1.92'}

>  <standard_flag>  (366) 
True

>  <molecule_chembl_id>  (366) 
CHEMBL513141

>  <target_organism>  (366) 
Homo sapiens

>  <standard_units>  (366) 
nM

>  <record_id>  (366) 
758572

>  <document_chembl_id>  (366) 
CHEMBL1139235

>  <bao_format>  (366) 
BAO_0000357

>  <data_validity_description>  (366) 
None

>  <activity_id>  (366) 
2620706

>  <standard_type>  (366) 
IC50

>  <target_chembl_id>  (366) 
CHEMBL205

>  <data_validity_comment>  (366) 
None

>  <published_value>  (366) 
4.2

>  <document_year>  (366) 
2009

>  <target_pref_name>  (366) 
Carbonic anhydrase II

>  <assay_chembl_id>  (366) 
CHEMBL975372

>  <standard_relation>  (366) 
=

>  <assay_description>  (366) 
Inhibition of esterase activity of human carbonic anhydrase 2 by CO2 hydration method

>  <published_relation>  (366) 
=

>  <standard_value>  (366) 
4200

>  <qudt_units>  (366) 
http://www.openphacts.org/units/Nanomolar

>  <target_tax_id>  (366) 
9606

>  <bao_label>  (366) 
single protein format

>  <published_units>  (366) 
uM

>  <pchembl_value>  (366) 
5.38

>  <published_type>  (366) 
IC50

>  <activity_comment>  (366) 
None

$$$$

     RDKit          

 38 42  0  0  0  0  0  0  0  0999 V2000
    0.0000    0.0000    0.0000 N   0  0  0  0  0  0  0  0  0  0  0  0
    0.0000    0.0000    0.0000 C   0  0  0  0  0  0  0  0  0  0  0  0
    0.0000    0.0000    0.0000 C   0  0  0  0  0  0  0  0  0  0  0  0
    0.0000    0.0000    0.0000 C   0  0  0  0  0  0  0  0  0  0  0  0
    0.0000    0.0000    0.0000 C   0  0  0  0  0  0  0  0  0  0  0  0
    0.0000    0.0000    0.0000 C   0  0  0  0  0  0  0  0  0  0  0  0
    0.0000    0.0000    0.0000 C   0  0  0  0  0  0  0  0  0  0  0  0
    0.0000    0.0000    0.0000 N   0  0  0  0  0  0  0  0  0  0  0  0
    0.0000    0.0000    0.0000 N   0  0  0  0  0  0  0  0  0  0  0  0
    0.0000    0.0000    0.0000 C   0  0  0  0  0  0  0  0  0  0  0  0
    0.0000    0.0000    0.0000 C   0  0  0  0  0  0  0  0  0  0  0  0
    0.0000    0.0000    0.0000 O   0  0  0  0  0  0  0  0  0  0  0  0
    0.0000    0.0000    0.0000 N   0  0  0  0  0  0  0  0  0  0  0  0
    0.0000    0.0000    0.0000 C   0  0  0  0  0  0  0  0  0  0  0  0
    0.0000    0.0000    0.0000 N   0  0  0  0  0  0  0  0  0  0  0  0
    0.0000    0.0000    0.0000 N   0  0  0  0  0  0  0  0  0  0  0  0
    0.0000    0.0000    0.0000 C   0  0  0  0  0  0  0  0  0  0  0  0
    0.0000    0.0000    0.0000 S   0  0  0  0  0  0  0  0  0  0  0  0
    0.0000    0.0000    0.0000 S   0  0  0  0  0  0  0  0  0  0  0  0
    0.0000    0.0000    0.0000 O   0  0  0  0  0  0  0  0  0  0  0  0
    0.0000    0.0000    0.0000 O   0  0  0  0  0  0  0  0  0  0  0  0
    0.0000    0.0000    0.0000 N   0  0  0  0  0  0  0  0  0  0  0  0
    0.0000    0.0000    0.0000 C   0  0  0  0  0  0  0  0  0  0  0  0
    0.0000    0.0000    0.0000 C   0  0  0  0  0  0  0  0  0  0  0  0
    0.0000    0.0000    0.0000 O   0  0  0  0  0  0  0  0  0  0  0  0
    0.0000    0.0000    0.0000 C   0  0  0  0  0  0  0  0  0  0  0  0
    0.0000    0.0000    0.0000 C   0  0  0  0  0  0  0  0  0  0  0  0
    0.0000    0.0000    0.0000 C   0  0  0  0  0  0  0  0  0  0  0  0
    0.0000    0.0000    0.0000 C   0  0  0  0  0  0  0  0  0  0  0  0
    0.0000    0.0000    0.0000 C   0  0  0  0  0  0  0  0  0  0  0  0
    0.0000    0.0000    0.0000 C   0  0  0  0  0  0  0  0  0  0  0  0
    0.0000    0.0000    0.0000 C   0  0  0  0  0  0  0  0  0  0  0  0
    0.0000    0.0000    0.0000 C   0  0  0  0  0  0  0  0  0  0  0  0
    0.0000    0.0000    0.0000 C   0  0  0  0  0  0  0  0  0  0  0  0
    0.0000    0.0000    0.0000 C   0  0  0  0  0  0  0  0  0  0  0  0
    0.0000    0.0000    0.0000 C   0  0  0  0  0  0  0  0  0  0  0  0
    0.0000    0.0000    0.0000 C   0  0  0  0  0  0  0  0  0  0  0  0
    0.0000    0.0000    0.0000 C   0  0  0  0  0  0  0  0  0  0  0  0
  1  2  1  0
  2  3  2  0
  3  4  1  0
  4  5  2  0
  5  6  1  0
  6  7  2  0
  6  8  1  0
  8  9  1  0
  9 10  2  0
 10 11  1  0
 11 12  2  0
 11 13  1  0
 13 14  1  0
 14 15  2  0
 15 16  1  0
 16 17  2  0
 17 18  1  0
 17 19  1  0
 19 20  2  0
 19 21  2  0
 19 22  1  0
 10 23  1  0
 23 24  1  0
 24 25  2  0
 24 26  1  0
 26 27  2  0
 27 28  1  0
 28 29  2  0
 29 30  1  0
 30 31  2  0
 23 32  2  0
 32 33  1  0
 33 34  2  0
 34 35  1  0
 35 36  2  0
 36 37  1  0
 37 38  2  0
  7  2  1  0
 32  8  1  0
 18 14  1  0
 31 26  1  0
 38 33  1  0
M  END
>  <pIC50>  (367) 
5.57

>  <ChEMBL_ID>  (367) 
CHEMBL513840

>  <document_journal>  (367) 
Bioorg. Med. Chem.

>  <bao_endpoint>  (367) 
BAO_0000190

>  <potential_duplicate>  (367) 
False

>  <uo_units>  (367) 
UO_0000065

>  <canonical_smiles>  (367) 
Nc1cccc(c1)n2nc(C(=O)Nc3nnc(s3)S(=O)(=O)N)c(C(=O)c4ccccc4)c2c5ccccc5

>  <parent_molecule_chembl_id>  (367) 
CHEMBL513840

>  <assay_type>  (367) 
B

>  <src_id>  (367) 
1

>  <ligand_efficiency>  (367) 
{u'le': u'0.2', u'bei': u'10.18', u'sei': u'2.61', u'lle': u'2.09'}

>  <standard_flag>  (367) 
True

>  <molecule_chembl_id>  (367) 
CHEMBL513840

>  <target_organism>  (367) 
Homo sapiens

>  <standard_units>  (367) 
nM

>  <record_id>  (367) 
758571

>  <document_chembl_id>  (367) 
CHEMBL1139235

>  <bao_format>  (367) 
BAO_0000357

>  <data_validity_description>  (367) 
None

>  <activity_id>  (367) 
2620712

>  <standard_type>  (367) 
IC50

>  <target_chembl_id>  (367) 
CHEMBL205

>  <data_validity_comment>  (367) 
None

>  <published_value>  (367) 
2.8

>  <document_year>  (367) 
2009

>  <target_pref_name>  (367) 
Carbonic anhydrase II

>  <assay_chembl_id>  (367) 
CHEMBL975372

>  <standard_relation>  (367) 
=

>  <assay_description>  (367) 
Inhibition of esterase activity of human carbonic anhydrase 2 by CO2 hydration method

>  <published_relation>  (367) 
=

>  <standard_value>  (367) 
2800

>  <qudt_units>  (367) 
http://www.openphacts.org/units/Nanomolar

>  <target_tax_id>  (367) 
9606

>  <bao_label>  (367) 
single protein format

>  <published_units>  (367) 
uM

>  <pchembl_value>  (367) 
5.55

>  <published_type>  (367) 
IC50

>  <activity_comment>  (367) 
None

$$$$

     RDKit          

 10 10  0  0  0  0  0  0  0  0999 V2000
    0.0000    0.0000    0.0000 N   0  0  0  0  0  0  0  0  0  0  0  0
    0.0000    0.0000    0.0000 C   0  0  0  0  0  0  0  0  0  0  0  0
    0.0000    0.0000    0.0000 N   0  0  0  0  0  0  0  0  0  0  0  0
    0.0000    0.0000    0.0000 N   0  0  0  0  0  0  0  0  0  0  0  0
    0.0000    0.0000    0.0000 C   0  0  0  0  0  0  0  0  0  0  0  0
    0.0000    0.0000    0.0000 S   0  0  0  0  0  0  0  0  0  0  0  0
    0.0000    0.0000    0.0000 S   0  0  0  0  0  0  0  0  0  0  0  0
    0.0000    0.0000    0.0000 O   0  0  0  0  0  0  0  0  0  0  0  0
    0.0000    0.0000    0.0000 O   0  0  0  0  0  0  0  0  0  0  0  0
    0.0000    0.0000    0.0000 N   0  0  0  0  0  0  0  0  0  0  0  0
  1  2  1  0
  2  3  2  0
  3  4  1  0
  4  5  2  0
  5  6  1  0
  5  7  1  0
  7  8  2  0
  7  9  2  0
  7 10  1  0
  6  2  1  0
M  END
>  <pIC50>  (368) 
5.505

>  <ChEMBL_ID>  (368) 
CHEMBL265674

>  <document_journal>  (368) 
Bioorg. Med. Chem.

>  <bao_endpoint>  (368) 
BAO_0000190

>  <potential_duplicate>  (368) 
False

>  <uo_units>  (368) 
UO_0000065

>  <canonical_smiles>  (368) 
Nc1nnc(s1)S(=O)(=O)N

>  <parent_molecule_chembl_id>  (368) 
CHEMBL265674

>  <assay_type>  (368) 
B

>  <src_id>  (368) 
1

>  <ligand_efficiency>  (368) 
{u'le': u'0.74', u'bei': u'30.21', u'sei': u'3.66', u'lle': u'6.64'}

>  <standard_flag>  (368) 
True

>  <molecule_chembl_id>  (368) 
CHEMBL265674

>  <target_organism>  (368) 
Homo sapiens

>  <standard_units>  (368) 
nM

>  <record_id>  (368) 
758476

>  <document_chembl_id>  (368) 
CHEMBL1139235

>  <bao_format>  (368) 
BAO_0000357

>  <data_validity_description>  (368) 
None

>  <activity_id>  (368) 
2620724

>  <standard_type>  (368) 
IC50

>  <target_chembl_id>  (368) 
CHEMBL205

>  <data_validity_comment>  (368) 
None

>  <published_value>  (368) 
3.6

>  <document_year>  (368) 
2009

>  <target_pref_name>  (368) 
Carbonic anhydrase II

>  <assay_chembl_id>  (368) 
CHEMBL975372

>  <standard_relation>  (368) 
=

>  <assay_description>  (368) 
Inhibition of esterase activity of human carbonic anhydrase 2 by CO2 hydration method

>  <published_relation>  (368) 
=

>  <standard_value>  (368) 
3600

>  <qudt_units>  (368) 
http://www.openphacts.org/units/Nanomolar

>  <target_tax_id>  (368) 
9606

>  <bao_label>  (368) 
single protein format

>  <published_units>  (368) 
uM

>  <pchembl_value>  (368) 
5.44

>  <published_type>  (368) 
IC50

>  <activity_comment>  (368) 
None

$$$$

     RDKit          

 50 56  0  0  0  0  0  0  0  0999 V2000
    0.0000    0.0000    0.0000 N   0  0  0  0  0  0  0  0  0  0  0  0
    0.0000    0.0000    0.0000 S   0  0  0  0  0  0  0  0  0  0  0  0
    0.0000    0.0000    0.0000 O   0  0  0  0  0  0  0  0  0  0  0  0
    0.0000    0.0000    0.0000 O   0  0  0  0  0  0  0  0  0  0  0  0
    0.0000    0.0000    0.0000 C   0  0  0  0  0  0  0  0  0  0  0  0
    0.0000    0.0000    0.0000 N   0  0  0  0  0  0  0  0  0  0  0  0
    0.0000    0.0000    0.0000 N   0  0  0  0  0  0  0  0  0  0  0  0
    0.0000    0.0000    0.0000 C   0  0  0  0  0  0  0  0  0  0  0  0
    0.0000    0.0000    0.0000 N   0  0  0  0  0  0  0  0  0  0  0  0
    0.0000    0.0000    0.0000 C   0  0  0  0  0  0  0  0  0  0  0  0
    0.0000    0.0000    0.0000 O   0  0  0  0  0  0  0  0  0  0  0  0
    0.0000    0.0000    0.0000 C   0  0  0  0  0  0  0  0  0  0  0  0
    0.0000    0.0000    0.0000 N   0  0  0  0  0  0  0  0  0  0  0  0
    0.0000    0.0000    0.0000 N   0  0  0  0  0  0  0  0  0  0  0  0
    0.0000    0.0000    0.0000 C   0  0  0  0  0  0  0  0  0  0  0  0
    0.0000    0.0000    0.0000 C   0  0  0  0  0  0  0  0  0  0  0  0
    0.0000    0.0000    0.0000 C   0  0  0  0  0  0  0  0  0  0  0  0
    0.0000    0.0000    0.0000 C   0  0  0  0  0  0  0  0  0  0  0  0
    0.0000    0.0000    0.0000 C   0  0  0  0  0  0  0  0  0  0  0  0
    0.0000    0.0000    0.0000 C   0  0  0  0  0  0  0  0  0  0  0  0
    0.0000    0.0000    0.0000 N   0  0  0  0  0  0  0  0  0  0  0  0
    0.0000    0.0000    0.0000 N   0  0  0  0  0  0  0  0  0  0  0  0
    0.0000    0.0000    0.0000 C   0  0  0  0  0  0  0  0  0  0  0  0
    0.0000    0.0000    0.0000 C   0  0  0  0  0  0  0  0  0  0  0  0
    0.0000    0.0000    0.0000 O   0  0  0  0  0  0  0  0  0  0  0  0
    0.0000    0.0000    0.0000 C   0  0  0  0  0  0  0  0  0  0  0  0
    0.0000    0.0000    0.0000 C   0  0  0  0  0  0  0  0  0  0  0  0
    0.0000    0.0000    0.0000 C   0  0  0  0  0  0  0  0  0  0  0  0
    0.0000    0.0000    0.0000 C   0  0  0  0  0  0  0  0  0  0  0  0
    0.0000    0.0000    0.0000 C   0  0  0  0  0  0  0  0  0  0  0  0
    0.0000    0.0000    0.0000 C   0  0  0  0  0  0  0  0  0  0  0  0
    0.0000    0.0000    0.0000 C   0  0  0  0  0  0  0  0  0  0  0  0
    0.0000    0.0000    0.0000 C   0  0  0  0  0  0  0  0  0  0  0  0
    0.0000    0.0000    0.0000 C   0  0  0  0  0  0  0  0  0  0  0  0
    0.0000    0.0000    0.0000 C   0  0  0  0  0  0  0  0  0  0  0  0
    0.0000    0.0000    0.0000 C   0  0  0  0  0  0  0  0  0  0  0  0
    0.0000    0.0000    0.0000 C   0  0  0  0  0  0  0  0  0  0  0  0
    0.0000    0.0000    0.0000 C   0  0  0  0  0  0  0  0  0  0  0  0
    0.0000    0.0000    0.0000 C   0  0  0  0  0  0  0  0  0  0  0  0
    0.0000    0.0000    0.0000 C   0  0  0  0  0  0  0  0  0  0  0  0
    0.0000    0.0000    0.0000 C   0  0  0  0  0  0  0  0  0  0  0  0
    0.0000    0.0000    0.0000 C   0  0  0  0  0  0  0  0  0  0  0  0
    0.0000    0.0000    0.0000 O   0  0  0  0  0  0  0  0  0  0  0  0
    0.0000    0.0000    0.0000 C   0  0  0  0  0  0  0  0  0  0  0  0
    0.0000    0.0000    0.0000 C   0  0  0  0  0  0  0  0  0  0  0  0
    0.0000    0.0000    0.0000 C   0  0  0  0  0  0  0  0  0  0  0  0
    0.0000    0.0000    0.0000 C   0  0  0  0  0  0  0  0  0  0  0  0
    0.0000    0.0000    0.0000 C   0  0  0  0  0  0  0  0  0  0  0  0
    0.0000    0.0000    0.0000 C   0  0  0  0  0  0  0  0  0  0  0  0
    0.0000    0.0000    0.0000 S   0  0  0  0  0  0  0  0  0  0  0  0
  1  2  1  0
  2  3  2  0
  2  4  2  0
  2  5  1  0
  5  6  2  0
  6  7  1  0
  7  8  2  0
  8  9  1  0
  9 10  1  0
 10 11  2  0
 10 12  1  0
 12 13  2  0
 13 14  1  0
 14 15  1  0
 15 16  2  0
 16 17  1  0
 17 18  2  0
 18 19  1  0
 19 20  2  0
 19 21  1  0
 21 22  2  3
 22 23  1  0
 23 24  2  0
 24 25  1  0
 24 26  1  0
 26 27  2  0
 27 28  1  0
 28 29  2  0
 29 30  1  0
 30 31  2  0
 31 32  1  0
 32 33  2  0
 14 34  1  0
 34 35  1  0
 35 36  2  0
 36 37  1  0
 37 38  2  0
 38 39  1  0
 39 40  2  0
 34 41  2  0
 41 42  1  0
 42 43  2  0
 42 44  1  0
 44 45  2  0
 45 46  1  0
 46 47  2  0
 47 48  1  0
 48 49  2  0
  8 50  1  0
 50  5  1  0
 41 12  1  0
 20 15  1  0
 33 23  1  0
 33 28  1  0
 40 35  1  0
 49 44  1  0
M  END
>  <pIC50>  (369) 
7.85

>  <ChEMBL_ID>  (369) 
CHEMBL508578

>  <document_journal>  (369) 
Bioorg. Med. Chem.

>  <bao_endpoint>  (369) 
BAO_0000190

>  <potential_duplicate>  (369) 
False

>  <uo_units>  (369) 
UO_0000065

>  <canonical_smiles>  (369) 
NS(=O)(=O)c1nnc(NC(=O)c2nn(c3cccc(c3)N=Nc4c(O)ccc5ccccc45)c(c6ccccc6)c2C(=O)c7ccccc7)s1

>  <parent_molecule_chembl_id>  (369) 
CHEMBL508578

>  <assay_type>  (369) 
B

>  <src_id>  (369) 
1

>  <ligand_efficiency>  (369) 
{u'le': u'0.21', u'bei': u'10.99', u'sei': u'3.33', u'lle': u'0.46'}

>  <standard_flag>  (369) 
True

>  <molecule_chembl_id>  (369) 
CHEMBL508578

>  <target_organism>  (369) 
Homo sapiens

>  <standard_units>  (369) 
nM

>  <record_id>  (369) 
758794

>  <document_chembl_id>  (369) 
CHEMBL1139235

>  <bao_format>  (369) 
BAO_0000357

>  <data_validity_description>  (369) 
None

>  <activity_id>  (369) 
2620729

>  <standard_type>  (369) 
IC50

>  <target_chembl_id>  (369) 
CHEMBL205

>  <data_validity_comment>  (369) 
None

>  <published_value>  (369) 
0.02

>  <document_year>  (369) 
2009

>  <target_pref_name>  (369) 
Carbonic anhydrase II

>  <assay_chembl_id>  (369) 
CHEMBL975370

>  <standard_relation>  (369) 
=

>  <assay_description>  (369) 
Inhibition of CO2-hydratase activity of human carbonic anhydrase 2 by CO2 hydration method

>  <published_relation>  (369) 
=

>  <standard_value>  (369) 
20

>  <qudt_units>  (369) 
http://www.openphacts.org/units/Nanomolar

>  <target_tax_id>  (369) 
9606

>  <bao_label>  (369) 
single protein format

>  <published_units>  (369) 
uM

>  <pchembl_value>  (369) 
7.7

>  <published_type>  (369) 
IC50

>  <activity_comment>  (369) 
None

$$$$

     RDKit          

 45 50  0  0  0  0  0  0  0  0999 V2000
    0.0000    0.0000    0.0000 C   0  0  0  0  0  0  0  0  0  0  0  0
    0.0000    0.0000    0.0000 C   0  0  0  0  0  0  0  0  0  0  0  0
    0.0000    0.0000    0.0000 O   0  0  0  0  0  0  0  0  0  0  0  0
    0.0000    0.0000    0.0000 C   0  0  0  0  0  0  0  0  0  0  0  0
    0.0000    0.0000    0.0000 N   0  0  0  0  0  0  0  0  0  0  0  0
    0.0000    0.0000    0.0000 C   0  0  0  0  0  0  0  0  0  0  0  0
    0.0000    0.0000    0.0000 C   0  0  0  0  0  0  0  0  0  0  0  0
    0.0000    0.0000    0.0000 C   0  0  0  0  0  0  0  0  0  0  0  0
    0.0000    0.0000    0.0000 C   0  0  0  0  0  0  0  0  0  0  0  0
    0.0000    0.0000    0.0000 C   0  0  0  0  0  0  0  0  0  0  0  0
    0.0000    0.0000    0.0000 C   0  0  0  0  0  0  0  0  0  0  0  0
    0.0000    0.0000    0.0000 C   0  0  0  0  0  0  0  0  0  0  0  0
    0.0000    0.0000    0.0000 C   0  0  0  0  0  0  0  0  0  0  0  0
    0.0000    0.0000    0.0000 C   0  0  0  0  0  0  0  0  0  0  0  0
    0.0000    0.0000    0.0000 N   0  0  0  0  0  0  0  0  0  0  0  0
    0.0000    0.0000    0.0000 N   0  0  0  0  0  0  0  0  0  0  0  0
    0.0000    0.0000    0.0000 C   0  0  0  0  0  0  0  0  0  0  0  0
    0.0000    0.0000    0.0000 C   0  0  0  0  0  0  0  0  0  0  0  0
    0.0000    0.0000    0.0000 O   0  0  0  0  0  0  0  0  0  0  0  0
    0.0000    0.0000    0.0000 N   0  0  0  0  0  0  0  0  0  0  0  0
    0.0000    0.0000    0.0000 C   0  0  0  0  0  0  0  0  0  0  0  0
    0.0000    0.0000    0.0000 N   0  0  0  0  0  0  0  0  0  0  0  0
    0.0000    0.0000    0.0000 N   0  0  0  0  0  0  0  0  0  0  0  0
    0.0000    0.0000    0.0000 C   0  0  0  0  0  0  0  0  0  0  0  0
    0.0000    0.0000    0.0000 S   0  0  0  0  0  0  0  0  0  0  0  0
    0.0000    0.0000    0.0000 S   0  0  0  0  0  0  0  0  0  0  0  0
    0.0000    0.0000    0.0000 O   0  0  0  0  0  0  0  0  0  0  0  0
    0.0000    0.0000    0.0000 O   0  0  0  0  0  0  0  0  0  0  0  0
    0.0000    0.0000    0.0000 N   0  0  0  0  0  0  0  0  0  0  0  0
    0.0000    0.0000    0.0000 C   0  0  0  0  0  0  0  0  0  0  0  0
    0.0000    0.0000    0.0000 C   0  0  0  0  0  0  0  0  0  0  0  0
    0.0000    0.0000    0.0000 O   0  0  0  0  0  0  0  0  0  0  0  0
    0.0000    0.0000    0.0000 C   0  0  0  0  0  0  0  0  0  0  0  0
    0.0000    0.0000    0.0000 C   0  0  0  0  0  0  0  0  0  0  0  0
    0.0000    0.0000    0.0000 C   0  0  0  0  0  0  0  0  0  0  0  0
    0.0000    0.0000    0.0000 C   0  0  0  0  0  0  0  0  0  0  0  0
    0.0000    0.0000    0.0000 C   0  0  0  0  0  0  0  0  0  0  0  0
    0.0000    0.0000    0.0000 C   0  0  0  0  0  0  0  0  0  0  0  0
    0.0000    0.0000    0.0000 C   0  0  0  0  0  0  0  0  0  0  0  0
    0.0000    0.0000    0.0000 C   0  0  0  0  0  0  0  0  0  0  0  0
    0.0000    0.0000    0.0000 C   0  0  0  0  0  0  0  0  0  0  0  0
    0.0000    0.0000    0.0000 C   0  0  0  0  0  0  0  0  0  0  0  0
    0.0000    0.0000    0.0000 C   0  0  0  0  0  0  0  0  0  0  0  0
    0.0000    0.0000    0.0000 C   0  0  0  0  0  0  0  0  0  0  0  0
    0.0000    0.0000    0.0000 C   0  0  0  0  0  0  0  0  0  0  0  0
  1  2  1  0
  2  3  2  0
  2  4  1  0
  4  5  1  0
  5  6  1  0
  6  7  1  0
  6  8  2  0
  8  9  1  0
  9 10  2  0
 10 11  1  0
 11 12  2  0
 12 13  1  0
 13 14  2  0
 10 15  1  0
 15 16  1  0
 16 17  2  0
 17 18  1  0
 18 19  2  0
 18 20  1  0
 20 21  1  0
 21 22  2  0
 22 23  1  0
 23 24  2  0
 24 25  1  0
 24 26  1  0
 26 27  2  0
 26 28  2  0
 26 29  1  0
 17 30  1  0
 30 31  1  0
 31 32  2  0
 31 33  1  0
 33 34  2  0
 34 35  1  0
 35 36  2  0
 36 37  1  0
 37 38  2  0
 30 39  2  0
 39 40  1  0
 40 41  2  0
 41 42  1  0
 42 43  2  0
 43 44  1  0
 44 45  2  0
 14  5  1  0
 14  9  1  0
 39 15  1  0
 25 21  1  0
 38 33  1  0
 45 40  1  0
M  END
>  <pIC50>  (370) 
6.75

>  <ChEMBL_ID>  (370) 
CHEMBL443431

>  <document_journal>  (370) 
Bioorg. Med. Chem.

>  <bao_endpoint>  (370) 
BAO_0000190

>  <potential_duplicate>  (370) 
False

>  <uo_units>  (370) 
UO_0000065

>  <canonical_smiles>  (370) 
CC(=O)Cn1c(C)cc2c(cccc12)n3nc(C(=O)Nc4nnc(s4)S(=O)(=O)N)c(C(=O)c5ccccc5)c3c6ccccc6

>  <parent_molecule_chembl_id>  (370) 
CHEMBL443431

>  <assay_type>  (370) 
B

>  <src_id>  (370) 
1

>  <ligand_efficiency>  (370) 
{u'le': u'0.2', u'bei': u'10.15', u'sei': u'3.11', u'lle': u'2.06'}

>  <standard_flag>  (370) 
True

>  <molecule_chembl_id>  (370) 
CHEMBL443431

>  <target_organism>  (370) 
Homo sapiens

>  <standard_units>  (370) 
nM

>  <record_id>  (370) 
758795

>  <document_chembl_id>  (370) 
CHEMBL1139235

>  <bao_format>  (370) 
BAO_0000357

>  <data_validity_description>  (370) 
None

>  <activity_id>  (370) 
2620735

>  <standard_type>  (370) 
IC50

>  <target_chembl_id>  (370) 
CHEMBL205

>  <data_validity_comment>  (370) 
None

>  <published_value>  (370) 
0.32

>  <document_year>  (370) 
2009

>  <target_pref_name>  (370) 
Carbonic anhydrase II

>  <assay_chembl_id>  (370) 
CHEMBL975370

>  <standard_relation>  (370) 
=

>  <assay_description>  (370) 
Inhibition of CO2-hydratase activity of human carbonic anhydrase 2 by CO2 hydration method

>  <published_relation>  (370) 
=

>  <standard_value>  (370) 
320

>  <qudt_units>  (370) 
http://www.openphacts.org/units/Nanomolar

>  <target_tax_id>  (370) 
9606

>  <bao_label>  (370) 
single protein format

>  <published_units>  (370) 
uM

>  <pchembl_value>  (370) 
6.5

>  <published_type>  (370) 
IC50

>  <activity_comment>  (370) 
None

$$$$

     RDKit          

 20 20  0  0  0  0  0  0  0  0999 V2000
    0.0000    0.0000    0.0000 C   0  0  0  0  0  0  0  0  0  0  0  0
    0.0000    0.0000    0.0000 O   0  0  0  0  0  0  0  0  0  0  0  0
    0.0000    0.0000    0.0000 C   0  0  0  0  0  0  0  0  0  0  0  0
    0.0000    0.0000    0.0000 C   0  0  0  0  0  0  0  0  0  0  0  0
    0.0000    0.0000    0.0000 C   0  0  0  0  0  0  0  0  0  0  0  0
    0.0000    0.0000    0.0000 O   0  0  0  0  0  0  0  0  0  0  0  0
    0.0000    0.0000    0.0000 C   0  0  0  0  0  0  0  0  0  0  0  0
    0.0000    0.0000    0.0000 C   0  0  0  0  0  0  0  0  0  0  0  0
    0.0000    0.0000    0.0000 C   0  0  0  0  0  0  0  0  0  0  0  0
    0.0000    0.0000    0.0000 C   0  0  0  0  0  0  0  0  0  0  0  0
    0.0000    0.0000    0.0000 O   0  0  0  0  0  0  0  0  0  0  0  0
    0.0000    0.0000    0.0000 O   0  0  0  0  0  0  0  0  0  0  0  0
    0.0000    0.0000    0.0000 C   0  0  0  0  0  0  0  0  0  0  0  0
    0.0000    0.0000    0.0000 C   0  0  0  0  0  0  0  0  0  0  0  0
    0.0000    0.0000    0.0000 C   0  0  0  0  0  0  0  0  0  0  0  0
    0.0000    0.0000    0.0000 O   0  0  0  0  0  0  0  0  0  0  0  0
    0.0000    0.0000    0.0000 C   0  0  0  0  0  0  0  0  0  0  0  0
    0.0000    0.0000    0.0000 C   0  0  0  0  0  0  0  0  0  0  0  0
    0.0000    0.0000    0.0000 C   0  0  0  0  0  0  0  0  0  0  0  0
    0.0000    0.0000    0.0000 C   0  0  0  0  0  0  0  0  0  0  0  0
  1  2  1  0
  2  3  1  0
  3  4  2  0
  4  5  1  0
  5  6  1  0
  5  7  2  0
  7  8  1  0
  8  9  2  0
  9 10  1  0
 10 11  2  0
 10 12  1  0
  7 13  1  0
 13 14  2  0
 14 15  1  0
 15 16  1  0
 15 17  1  0
 17 18  1  0
 18 19  1  0
 18 20  1  0
 14  3  1  0
M  END
>  <pIC50>  (371) 
7.23

>  <ChEMBL_ID>  (371) 
CHEMBL560175

>  <document_journal>  (371) 
Bioorg. Med. Chem. Lett.

>  <bao_endpoint>  (371) 
BAO_0000190

>  <potential_duplicate>  (371) 
False

>  <uo_units>  (371) 
UO_0000065

>  <canonical_smiles>  (371) 
COc1cc(O)c(\C=C/C(=O)O)cc1[C@@H](O)CC(C)C

>  <parent_molecule_chembl_id>  (371) 
CHEMBL560175

>  <assay_type>  (371) 
B

>  <src_id>  (371) 
1

>  <ligand_efficiency>  (371) 
{u'le': u'0.49', u'bei': u'25.79', u'sei': u'8.31', u'lle': u'4.56'}

>  <standard_flag>  (371) 
True

>  <molecule_chembl_id>  (371) 
CHEMBL560175

>  <target_organism>  (371) 
Homo sapiens

>  <standard_units>  (371) 
nM

>  <record_id>  (371) 
821987

>  <document_chembl_id>  (371) 
CHEMBL1152378

>  <bao_format>  (371) 
BAO_0000357

>  <data_validity_description>  (371) 
None

>  <activity_id>  (371) 
2692416

>  <standard_type>  (371) 
IC50

>  <target_chembl_id>  (371) 
CHEMBL205

>  <data_validity_comment>  (371) 
None

>  <published_value>  (371) 
59

>  <document_year>  (371) 
2009

>  <target_pref_name>  (371) 
Carbonic anhydrase II

>  <assay_chembl_id>  (371) 
CHEMBL1053952

>  <standard_relation>  (371) 
=

>  <assay_description>  (371) 
Inhibition of human carbonic anhydrase 2 by stopped flow CO2 hydration assay

>  <published_relation>  (371) 
=

>  <standard_value>  (371) 
59

>  <qudt_units>  (371) 
http://www.openphacts.org/units/Nanomolar

>  <target_tax_id>  (371) 
9606

>  <bao_label>  (371) 
single protein format

>  <published_units>  (371) 
nM

>  <pchembl_value>  (371) 
7.23

>  <published_type>  (371) 
IC50

>  <activity_comment>  (371) 
None

$$$$

     RDKit          

 22 23  0  0  0  0  0  0  0  0999 V2000
    0.0000    0.0000    0.0000 N   0  0  0  0  0  0  0  0  0  0  0  0
    0.0000    0.0000    0.0000 S   0  0  0  0  0  0  0  0  0  0  0  0
    0.0000    0.0000    0.0000 O   0  0  0  0  0  0  0  0  0  0  0  0
    0.0000    0.0000    0.0000 O   0  0  0  0  0  0  0  0  0  0  0  0
    0.0000    0.0000    0.0000 C   0  0  0  0  0  0  0  0  0  0  0  0
    0.0000    0.0000    0.0000 C   0  0  0  0  0  0  0  0  0  0  0  0
    0.0000    0.0000    0.0000 C   0  0  0  0  0  0  0  0  0  0  0  0
    0.0000    0.0000    0.0000 C   0  0  0  0  0  0  0  0  0  0  0  0
    0.0000    0.0000    0.0000 N   0  0  0  0  0  0  0  0  0  0  0  0
    0.0000    0.0000    0.0000 C   0  0  0  0  0  0  0  0  0  0  0  0
    0.0000    0.0000    0.0000 N   0  0  0  0  0  0  0  0  0  0  0  0
    0.0000    0.0000    0.0000 C   0  0  0  0  0  0  0  0  0  0  0  0
    0.0000    0.0000    0.0000 C   0  0  0  0  0  0  0  0  0  0  0  0
    0.0000    0.0000    0.0000 Br  0  0  0  0  0  0  0  0  0  0  0  0
    0.0000    0.0000    0.0000 C   0  0  0  0  0  0  0  0  0  0  0  0
    0.0000    0.0000    0.0000 N   0  0  0  0  0  0  0  0  0  0  0  0
    0.0000    0.0000    0.0000 C   0  0  0  0  0  0  0  0  0  0  0  0
    0.0000    0.0000    0.0000 C   0  0  0  0  0  0  0  0  0  0  0  0
    0.0000    0.0000    0.0000 C   0  0  0  0  0  0  0  0  0  0  0  0
    0.0000    0.0000    0.0000 N   0  0  0  0  0  0  0  0  0  0  0  0
    0.0000    0.0000    0.0000 C   0  0  0  0  0  0  0  0  0  0  0  0
    0.0000    0.0000    0.0000 C   0  0  0  0  0  0  0  0  0  0  0  0
  1  2  1  0
  2  3  2  0
  2  4  2  0
  2  5  1  0
  5  6  2  0
  6  7  1  0
  7  8  2  0
  8  9  1  0
  9 10  1  0
 10 11  2  0
 11 12  1  0
 12 13  2  0
 13 14  1  0
 13 15  1  0
 15 16  1  0
 16 17  1  0
 17 18  1  0
 18 19  3  0
 15 20  2  0
  8 21  1  0
 21 22  2  0
 22  5  1  0
 20 10  1  0
M  END
>  <pIC50>  (372) 
6.48

>  <ChEMBL_ID>  (372) 
CHEMBL549757

>  <document_journal>  (372) 
Bioorg. Med. Chem. Lett.

>  <bao_endpoint>  (372) 
BAO_0000190

>  <potential_duplicate>  (372) 
False

>  <uo_units>  (372) 
UO_0000065

>  <canonical_smiles>  (372) 
NS(=O)(=O)c1ccc(Nc2ncc(Br)c(NCC#C)n2)cc1

>  <parent_molecule_chembl_id>  (372) 
CHEMBL549757

>  <assay_type>  (372) 
B

>  <src_id>  (372) 
1

>  <ligand_efficiency>  (372) 
{u'le': u'0.4', u'bei': u'16.95', u'sei': u'5.47', u'lle': u'3.36'}

>  <standard_flag>  (372) 
True

>  <molecule_chembl_id>  (372) 
CHEMBL549757

>  <target_organism>  (372) 
Homo sapiens

>  <standard_units>  (372) 
nM

>  <record_id>  (372) 
821913

>  <document_chembl_id>  (372) 
CHEMBL1152378

>  <bao_format>  (372) 
BAO_0000357

>  <data_validity_description>  (372) 
None

>  <activity_id>  (372) 
2692428

>  <standard_type>  (372) 
IC50

>  <target_chembl_id>  (372) 
CHEMBL205

>  <data_validity_comment>  (372) 
None

>  <published_value>  (372) 
331

>  <document_year>  (372) 
2009

>  <target_pref_name>  (372) 
Carbonic anhydrase II

>  <assay_chembl_id>  (372) 
CHEMBL1053952

>  <standard_relation>  (372) 
=

>  <assay_description>  (372) 
Inhibition of human carbonic anhydrase 2 by stopped flow CO2 hydration assay

>  <published_relation>  (372) 
=

>  <standard_value>  (372) 
331

>  <qudt_units>  (372) 
http://www.openphacts.org/units/Nanomolar

>  <target_tax_id>  (372) 
9606

>  <bao_label>  (372) 
single protein format

>  <published_units>  (372) 
nM

>  <pchembl_value>  (372) 
6.48

>  <published_type>  (372) 
IC50

>  <activity_comment>  (372) 
None

$$$$

     RDKit          

 15 15  0  0  0  0  0  0  0  0999 V2000
    0.0000    0.0000    0.0000 N   0  0  0  0  0  0  0  0  0  0  0  0
    0.0000    0.0000    0.0000 S   0  0  0  0  0  0  0  0  0  0  0  0
    0.0000    0.0000    0.0000 O   0  0  0  0  0  0  0  0  0  0  0  0
    0.0000    0.0000    0.0000 O   0  0  0  0  0  0  0  0  0  0  0  0
    0.0000    0.0000    0.0000 C   0  0  0  0  0  0  0  0  0  0  0  0
    0.0000    0.0000    0.0000 C   0  0  0  0  0  0  0  0  0  0  0  0
    0.0000    0.0000    0.0000 C   0  0  0  0  0  0  0  0  0  0  0  0
    0.0000    0.0000    0.0000 C   0  0  0  0  0  0  0  0  0  0  0  0
    0.0000    0.0000    0.0000 O   0  0  0  0  0  0  0  0  0  0  0  0
    0.0000    0.0000    0.0000 O   0  0  0  0  0  0  0  0  0  0  0  0
    0.0000    0.0000    0.0000 C   0  0  0  0  0  0  0  0  0  0  0  0
    0.0000    0.0000    0.0000 Cl  0  0  0  0  0  0  0  0  0  0  0  0
    0.0000    0.0000    0.0000 C   0  0  0  0  0  0  0  0  0  0  0  0
    0.0000    0.0000    0.0000 C   0  0  0  0  0  0  0  0  0  0  0  0
    0.0000    0.0000    0.0000 Cl  0  0  0  0  0  0  0  0  0  0  0  0
  1  2  1  0
  2  3  2  0
  2  4  2  0
  2  5  1  0
  5  6  2  0
  6  7  1  0
  7  8  1  0
  8  9  2  0
  8 10  1  0
  7 11  2  0
 11 12  1  0
 11 13  1  0
 13 14  2  0
 14 15  1  0
 14  5  1  0
M  END
>  <pIC50>  (373) 
5.27666666667

>  <ChEMBL_ID>  (373) 
CHEMBL120886

>  <document_journal>  (373) 
Bioorg. Med. Chem.

>  <bao_endpoint>  (373) 
BAO_0000190

>  <potential_duplicate>  (373) 
False

>  <uo_units>  (373) 
UO_0000065

>  <canonical_smiles>  (373) 
NS(=O)(=O)c1cc(C(=O)O)c(Cl)cc1Cl

>  <parent_molecule_chembl_id>  (373) 
CHEMBL120886

>  <assay_type>  (373) 
B

>  <src_id>  (373) 
1

>  <ligand_efficiency>  (373) 
{u'le': u'0.58', u'bei': u'23.77', u'sei': u'6.07', u'lle': u'4.93'}

>  <standard_flag>  (373) 
True

>  <molecule_chembl_id>  (373) 
CHEMBL120886

>  <target_organism>  (373) 
Homo sapiens

>  <standard_units>  (373) 
nM

>  <record_id>  (373) 
881887

>  <document_chembl_id>  (373) 
CHEMBL1157726

>  <bao_format>  (373) 
BAO_0000019

>  <data_validity_description>  (373) 
None

>  <activity_id>  (373) 
3108741

>  <standard_type>  (373) 
IC50

>  <target_chembl_id>  (373) 
CHEMBL205

>  <data_validity_comment>  (373) 
None

>  <published_value>  (373) 
0.38

>  <document_year>  (373) 
2010

>  <target_pref_name>  (373) 
Carbonic anhydrase II

>  <assay_chembl_id>  (373) 
CHEMBL1073569

>  <standard_relation>  (373) 
=

>  <assay_description>  (373) 
Inhibition of hydratase-activity of human erythrocytes CA2 by CO2-hydration method

>  <published_relation>  (373) 
=

>  <standard_value>  (373) 
380

>  <qudt_units>  (373) 
http://www.openphacts.org/units/Nanomolar

>  <target_tax_id>  (373) 
9606

>  <bao_label>  (373) 
assay format

>  <published_units>  (373) 
uM

>  <pchembl_value>  (373) 
6.42

>  <published_type>  (373) 
IC50

>  <activity_comment>  (373) 
None

$$$$

     RDKit          

 26 28  0  0  0  0  0  0  0  0999 V2000
    0.0000    0.0000    0.0000 N   0  0  0  0  0  0  0  0  0  0  0  0
    0.0000    0.0000    0.0000 S   0  0  0  0  0  0  0  0  0  0  0  0
    0.0000    0.0000    0.0000 O   0  0  0  0  0  0  0  0  0  0  0  0
    0.0000    0.0000    0.0000 O   0  0  0  0  0  0  0  0  0  0  0  0
    0.0000    0.0000    0.0000 O   0  0  0  0  0  0  0  0  0  0  0  0
    0.0000    0.0000    0.0000 C   0  0  0  0  0  0  0  0  0  0  0  0
    0.0000    0.0000    0.0000 C   0  0  0  0  0  0  0  0  0  0  0  0
    0.0000    0.0000    0.0000 C   0  0  0  0  0  0  0  0  0  0  0  0
    0.0000    0.0000    0.0000 C   0  0  0  0  0  0  0  0  0  0  0  0
    0.0000    0.0000    0.0000 C   0  0  0  0  0  0  0  0  0  0  0  0
    0.0000    0.0000    0.0000 C   0  0  0  0  0  0  0  0  0  0  0  0
    0.0000    0.0000    0.0000 Cl  0  0  0  0  0  0  0  0  0  0  0  0
    0.0000    0.0000    0.0000 C   0  0  0  0  0  0  0  0  0  0  0  0
    0.0000    0.0000    0.0000 C   0  0  0  0  0  0  0  0  0  0  0  0
    0.0000    0.0000    0.0000 C   0  0  0  0  0  0  0  0  0  0  0  0
    0.0000    0.0000    0.0000 C   0  0  0  0  0  0  0  0  0  0  0  0
    0.0000    0.0000    0.0000 N   0  0  0  0  0  0  0  0  0  0  0  0
    0.0000    0.0000    0.0000 C   0  0  0  0  0  0  0  0  0  0  0  0
    0.0000    0.0000    0.0000 N   0  0  0  0  0  0  0  0  0  0  0  0
    0.0000    0.0000    0.0000 C   0  0  0  0  0  0  0  0  0  0  0  0
    0.0000    0.0000    0.0000 N   0  0  0  0  0  0  0  0  0  0  0  0
    0.0000    0.0000    0.0000 C   0  0  0  0  0  0  0  0  0  0  0  0
    0.0000    0.0000    0.0000 C   0  0  0  0  0  0  0  0  0  0  0  0
    0.0000    0.0000    0.0000 C   0  0  0  0  0  0  0  0  0  0  0  0
    0.0000    0.0000    0.0000 C   0  0  0  0  0  0  0  0  0  0  0  0
    0.0000    0.0000    0.0000 N   0  0  0  0  0  0  0  0  0  0  0  0
  1  2  1  0
  2  3  2  0
  2  4  2  0
  2  5  1  0
  5  6  1  0
  6  7  2  0
  7  8  1  0
  8  9  2  0
  9 10  1  0
 10 11  2  0
 11 12  1  0
  9 13  1  0
 13 14  2  0
 14 15  1  0
 15 16  1  0
 16 17  1  0
 17 18  1  0
 18 19  2  0
 19 20  1  0
 20 21  2  0
 15 22  2  0
 22 23  1  0
 23 24  2  0
 24 25  1  0
 25 26  3  0
 11  6  1  0
 24 13  1  0
 21 17  1  0
M  END
>  <pIC50>  (374) 
7.07

>  <ChEMBL_ID>  (374) 
CHEMBL592131

>  <document_journal>  (374) 
J. Med. Chem.

>  <bao_endpoint>  (374) 
BAO_0000190

>  <potential_duplicate>  (374) 
False

>  <uo_units>  (374) 
UO_0000065

>  <canonical_smiles>  (374) 
NS(=O)(=O)Oc1ccc(cc1Cl)c2cc(Cn3cncn3)ccc2C#N

>  <parent_molecule_chembl_id>  (374) 
CHEMBL592131

>  <assay_type>  (374) 
B

>  <src_id>  (374) 
1

>  <ligand_efficiency>  (374) 
{u'le': u'0.37', u'bei': u'18.13', u'sei': u'5.34', u'lle': u'4.89'}

>  <standard_flag>  (374) 
True

>  <molecule_chembl_id>  (374) 
CHEMBL592131

>  <target_organism>  (374) 
Homo sapiens

>  <standard_units>  (374) 
nM

>  <record_id>  (374) 
878743

>  <document_chembl_id>  (374) 
CHEMBL1157574

>  <bao_format>  (374) 
BAO_0000357

>  <data_validity_description>  (374) 
None

>  <activity_id>  (374) 
3124105

>  <standard_type>  (374) 
IC50

>  <target_chembl_id>  (374) 
CHEMBL205

>  <data_validity_comment>  (374) 
None

>  <published_value>  (374) 
86

>  <document_year>  (374) 
2010

>  <target_pref_name>  (374) 
Carbonic anhydrase II

>  <assay_chembl_id>  (374) 
CHEMBL1068843

>  <standard_relation>  (374) 
=

>  <assay_description>  (374) 
Inhibition of human CA2 by colorimetric assay

>  <published_relation>  (374) 
=

>  <standard_value>  (374) 
86

>  <qudt_units>  (374) 
http://www.openphacts.org/units/Nanomolar

>  <target_tax_id>  (374) 
9606

>  <bao_label>  (374) 
single protein format

>  <published_units>  (374) 
nM

>  <pchembl_value>  (374) 
7.07

>  <published_type>  (374) 
IC50

>  <activity_comment>  (374) 
None

$$$$

     RDKit          

 23 22  0  0  0  0  0  0  0  0999 V2000
    0.0000    0.0000    0.0000 N   0  0  0  0  0  0  0  0  0  0  0  0
    0.0000    0.0000    0.0000 S   0  0  0  0  0  0  0  0  0  0  0  0
    0.0000    0.0000    0.0000 O   0  0  0  0  0  0  0  0  0  0  0  0
    0.0000    0.0000    0.0000 O   0  0  0  0  0  0  0  0  0  0  0  0
    0.0000    0.0000    0.0000 C   0  0  0  0  0  0  0  0  0  0  0  0
    0.0000    0.0000    0.0000 F   0  0  0  0  0  0  0  0  0  0  0  0
    0.0000    0.0000    0.0000 F   0  0  0  0  0  0  0  0  0  0  0  0
    0.0000    0.0000    0.0000 C   0  0  0  0  0  0  0  0  0  0  0  0
    0.0000    0.0000    0.0000 F   0  0  0  0  0  0  0  0  0  0  0  0
    0.0000    0.0000    0.0000 F   0  0  0  0  0  0  0  0  0  0  0  0
    0.0000    0.0000    0.0000 C   0  0  0  0  0  0  0  0  0  0  0  0
    0.0000    0.0000    0.0000 F   0  0  0  0  0  0  0  0  0  0  0  0
    0.0000    0.0000    0.0000 F   0  0  0  0  0  0  0  0  0  0  0  0
    0.0000    0.0000    0.0000 C   0  0  0  0  0  0  0  0  0  0  0  0
    0.0000    0.0000    0.0000 F   0  0  0  0  0  0  0  0  0  0  0  0
    0.0000    0.0000    0.0000 F   0  0  0  0  0  0  0  0  0  0  0  0
    0.0000    0.0000    0.0000 C   0  0  0  0  0  0  0  0  0  0  0  0
    0.0000    0.0000    0.0000 F   0  0  0  0  0  0  0  0  0  0  0  0
    0.0000    0.0000    0.0000 F   0  0  0  0  0  0  0  0  0  0  0  0
    0.0000    0.0000    0.0000 C   0  0  0  0  0  0  0  0  0  0  0  0
    0.0000    0.0000    0.0000 F   0  0  0  0  0  0  0  0  0  0  0  0
    0.0000    0.0000    0.0000 F   0  0  0  0  0  0  0  0  0  0  0  0
    0.0000    0.0000    0.0000 F   0  0  0  0  0  0  0  0  0  0  0  0
  1  2  1  0
  2  3  2  0
  2  4  2  0
  2  5  1  0
  5  6  1  0
  5  7  1  0
  5  8  1  0
  8  9  1  0
  8 10  1  0
  8 11  1  0
 11 12  1  0
 11 13  1  0
 11 14  1  0
 14 15  1  0
 14 16  1  0
 14 17  1  0
 17 18  1  0
 17 19  1  0
 17 20  1  0
 20 21  1  0
 20 22  1  0
 20 23  1  0
M  END
>  <pIC50>  (375) 
6.91

>  <ChEMBL_ID>  (375) 
CHEMBL1076889

>  <document_journal>  (375) 
Eur. J. Med. Chem.

>  <bao_endpoint>  (375) 
BAO_0000190

>  <potential_duplicate>  (375) 
False

>  <uo_units>  (375) 
UO_0000065

>  <canonical_smiles>  (375) 
[Na+].[NH-]S(=O)(=O)C(F)(F)C(F)(F)C(F)(F)C(F)(F)C(F)(F)C(F)(F)F

>  <parent_molecule_chembl_id>  (375) 
CHEMBL1087373

>  <assay_type>  (375) 
B

>  <src_id>  (375) 
1

>  <ligand_efficiency>  (375) 
{u'le': u'0.41', u'bei': u'17.32', u'sei': u'10.09', u'lle': u'3.99'}

>  <standard_flag>  (375) 
True

>  <molecule_chembl_id>  (375) 
CHEMBL1076889

>  <target_organism>  (375) 
Homo sapiens

>  <standard_units>  (375) 
nM

>  <record_id>  (375) 
893617

>  <document_chembl_id>  (375) 
CHEMBL1154860

>  <bao_format>  (375) 
BAO_0000357

>  <data_validity_description>  (375) 
None

>  <activity_id>  (375) 
3192951

>  <standard_type>  (375) 
IC50

>  <target_chembl_id>  (375) 
CHEMBL205

>  <data_validity_comment>  (375) 
None

>  <published_value>  (375) 
0.122

>  <document_year>  (375) 
2010

>  <target_pref_name>  (375) 
Carbonic anhydrase II

>  <assay_chembl_id>  (375) 
CHEMBL1105195

>  <standard_relation>  (375) 
=

>  <assay_description>  (375) 
Inhibition of human carbonic anhydrase 2 assessed as conversion of 4-nitrophenyl acetate to 4-nitrophnolate after 5 mins

>  <published_relation>  (375) 
=

>  <standard_value>  (375) 
122

>  <qudt_units>  (375) 
http://www.openphacts.org/units/Nanomolar

>  <target_tax_id>  (375) 
9606

>  <bao_label>  (375) 
single protein format

>  <published_units>  (375) 
uM

>  <pchembl_value>  (375) 
6.91

>  <published_type>  (375) 
IC50

>  <activity_comment>  (375) 
None

$$$$

     RDKit          

 16 17  0  0  0  0  0  0  0  0999 V2000
    0.0000    0.0000    0.0000 N   0  0  0  0  0  0  0  0  0  0  0  0
    0.0000    0.0000    0.0000 S   0  0  0  0  0  0  0  0  0  0  0  0
    0.0000    0.0000    0.0000 O   0  0  0  0  0  0  0  0  0  0  0  0
    0.0000    0.0000    0.0000 O   0  0  0  0  0  0  0  0  0  0  0  0
    0.0000    0.0000    0.0000 N   0  0  0  0  0  0  0  0  0  0  0  0
    0.0000    0.0000    0.0000 C   0  0  0  0  0  0  0  0  0  0  0  0
    0.0000    0.0000    0.0000 C   0  0  0  0  0  0  0  0  0  0  0  0
    0.0000    0.0000    0.0000 C   0  0  0  0  0  0  0  0  0  0  0  0
    0.0000    0.0000    0.0000 C   0  0  0  0  0  0  0  0  0  0  0  0
    0.0000    0.0000    0.0000 C   0  0  0  0  0  0  0  0  0  0  0  0
    0.0000    0.0000    0.0000 C   0  0  0  0  0  0  0  0  0  0  0  0
    0.0000    0.0000    0.0000 C   0  0  0  0  0  0  0  0  0  0  0  0
    0.0000    0.0000    0.0000 C   0  0  0  0  0  0  0  0  0  0  0  0
    0.0000    0.0000    0.0000 C   0  0  0  0  0  0  0  0  0  0  0  0
    0.0000    0.0000    0.0000 C   0  0  0  0  0  0  0  0  0  0  0  0
    0.0000    0.0000    0.0000 C   0  0  0  0  0  0  0  0  0  0  0  0
  1  2  1  0
  2  3  2  0
  2  4  2  0
  2  5  1  0
  5  6  1  0
  6  7  1  0
  7  8  2  0
  8  9  1  0
  9 10  2  0
 10 11  1  0
 11 12  2  0
 12 13  1  0
 13 14  2  0
 14 15  1  0
 15 16  2  0
 16  7  1  0
 16 11  1  0
M  END
>  <pIC50>  (376) 
4.68

>  <ChEMBL_ID>  (376) 
CHEMBL1088203

>  <document_journal>  (376) 
J. Med. Chem.

>  <bao_endpoint>  (376) 
BAO_0000190

>  <potential_duplicate>  (376) 
False

>  <uo_units>  (376) 
UO_0000065

>  <canonical_smiles>  (376) 
NS(=O)(=O)NCc1cccc2ccccc12

>  <parent_molecule_chembl_id>  (376) 
CHEMBL1088203

>  <assay_type>  (376) 
B

>  <src_id>  (376) 
1

>  <ligand_efficiency>  (376) 
{u'le': u'0.4', u'bei': u'19.8', u'sei': u'5.81', u'lle': u'3.84'}

>  <standard_flag>  (376) 
True

>  <molecule_chembl_id>  (376) 
CHEMBL1088203

>  <target_organism>  (376) 
Homo sapiens

>  <standard_units>  (376) 
nM

>  <record_id>  (376) 
894823

>  <document_chembl_id>  (376) 
CHEMBL1153762

>  <bao_format>  (376) 
BAO_0000357

>  <data_validity_description>  (376) 
None

>  <activity_id>  (376) 
3231870

>  <standard_type>  (376) 
IC50

>  <target_chembl_id>  (376) 
CHEMBL205

>  <data_validity_comment>  (376) 
None

>  <published_value>  (376) 
21

>  <document_year>  (376) 
2009

>  <target_pref_name>  (376) 
Carbonic anhydrase II

>  <assay_chembl_id>  (376) 
CHEMBL1109265

>  <standard_relation>  (376) 
=

>  <assay_description>  (376) 
Inhibition of human carbonic anhydrase 2 by CO2 hydration assay

>  <published_relation>  (376) 
=

>  <standard_value>  (376) 
21000

>  <qudt_units>  (376) 
http://www.openphacts.org/units/Nanomolar

>  <target_tax_id>  (376) 
9606

>  <bao_label>  (376) 
single protein format

>  <published_units>  (376) 
uM

>  <pchembl_value>  (376) 
4.68

>  <published_type>  (376) 
IC50

>  <activity_comment>  (376) 
None

$$$$

     RDKit          

 16 17  0  0  0  0  0  0  0  0999 V2000
    0.0000    0.0000    0.0000 N   0  0  0  0  0  0  0  0  0  0  0  0
    0.0000    0.0000    0.0000 S   0  0  0  0  0  0  0  0  0  0  0  0
    0.0000    0.0000    0.0000 O   0  0  0  0  0  0  0  0  0  0  0  0
    0.0000    0.0000    0.0000 O   0  0  0  0  0  0  0  0  0  0  0  0
    0.0000    0.0000    0.0000 N   0  0  0  0  0  0  0  0  0  0  0  0
    0.0000    0.0000    0.0000 C   0  0  0  0  0  0  0  0  0  0  0  0
    0.0000    0.0000    0.0000 C   0  0  0  0  0  0  0  0  0  0  0  0
    0.0000    0.0000    0.0000 C   0  0  0  0  0  0  0  0  0  0  0  0
    0.0000    0.0000    0.0000 S   0  0  0  0  0  0  0  0  0  0  0  0
    0.0000    0.0000    0.0000 C   0  0  0  0  0  0  0  0  0  0  0  0
    0.0000    0.0000    0.0000 C   0  0  0  0  0  0  0  0  0  0  0  0
    0.0000    0.0000    0.0000 C   0  0  0  0  0  0  0  0  0  0  0  0
    0.0000    0.0000    0.0000 C   0  0  0  0  0  0  0  0  0  0  0  0
    0.0000    0.0000    0.0000 C   0  0  0  0  0  0  0  0  0  0  0  0
    0.0000    0.0000    0.0000 Br  0  0  0  0  0  0  0  0  0  0  0  0
    0.0000    0.0000    0.0000 C   0  0  0  0  0  0  0  0  0  0  0  0
  1  2  1  0
  2  3  2  0
  2  4  2  0
  2  5  1  0
  5  6  1  0
  6  7  1  0
  7  8  2  0
  8  9  1  0
  9 10  1  0
 10 11  2  0
 11 12  1  0
 12 13  2  0
 13 14  1  0
 14 15  1  0
 14 16  2  0
 16  7  1  0
 16 10  1  0
M  END
>  <pIC50>  (377) 
5.43

>  <ChEMBL_ID>  (377) 
CHEMBL1084919

>  <document_journal>  (377) 
J. Med. Chem.

>  <bao_endpoint>  (377) 
BAO_0000190

>  <potential_duplicate>  (377) 
False

>  <uo_units>  (377) 
UO_0000065

>  <canonical_smiles>  (377) 
NS(=O)(=O)NCc1csc2cccc(Br)c12

>  <parent_molecule_chembl_id>  (377) 
CHEMBL1084919

>  <assay_type>  (377) 
B

>  <src_id>  (377) 
1

>  <ligand_efficiency>  (377) 
{u'le': u'0.46', u'bei': u'16.91', u'sei': u'4.99', u'lle': u'3.89'}

>  <standard_flag>  (377) 
True

>  <molecule_chembl_id>  (377) 
CHEMBL1084919

>  <target_organism>  (377) 
Homo sapiens

>  <standard_units>  (377) 
nM

>  <record_id>  (377) 
894800

>  <document_chembl_id>  (377) 
CHEMBL1153762

>  <bao_format>  (377) 
BAO_0000357

>  <data_validity_description>  (377) 
None

>  <activity_id>  (377) 
3231871

>  <standard_type>  (377) 
IC50

>  <target_chembl_id>  (377) 
CHEMBL205

>  <data_validity_comment>  (377) 
None

>  <published_value>  (377) 
3.7

>  <document_year>  (377) 
2009

>  <target_pref_name>  (377) 
Carbonic anhydrase II

>  <assay_chembl_id>  (377) 
CHEMBL1109265

>  <standard_relation>  (377) 
=

>  <assay_description>  (377) 
Inhibition of human carbonic anhydrase 2 by CO2 hydration assay

>  <published_relation>  (377) 
=

>  <standard_value>  (377) 
3700

>  <qudt_units>  (377) 
http://www.openphacts.org/units/Nanomolar

>  <target_tax_id>  (377) 
9606

>  <bao_label>  (377) 
single protein format

>  <published_units>  (377) 
uM

>  <pchembl_value>  (377) 
5.43

>  <published_type>  (377) 
IC50

>  <activity_comment>  (377) 
None

$$$$

     RDKit          

 16 17  0  0  0  0  0  0  0  0999 V2000
    0.0000    0.0000    0.0000 N   0  0  0  0  0  0  0  0  0  0  0  0
    0.0000    0.0000    0.0000 S   0  0  0  0  0  0  0  0  0  0  0  0
    0.0000    0.0000    0.0000 O   0  0  0  0  0  0  0  0  0  0  0  0
    0.0000    0.0000    0.0000 O   0  0  0  0  0  0  0  0  0  0  0  0
    0.0000    0.0000    0.0000 N   0  0  0  0  0  0  0  0  0  0  0  0
    0.0000    0.0000    0.0000 C   0  0  0  0  0  0  0  0  0  0  0  0
    0.0000    0.0000    0.0000 C   0  0  0  0  0  0  0  0  0  0  0  0
    0.0000    0.0000    0.0000 C   0  0  0  0  0  0  0  0  0  0  0  0
    0.0000    0.0000    0.0000 S   0  0  0  0  0  0  0  0  0  0  0  0
    0.0000    0.0000    0.0000 C   0  0  0  0  0  0  0  0  0  0  0  0
    0.0000    0.0000    0.0000 C   0  0  0  0  0  0  0  0  0  0  0  0
    0.0000    0.0000    0.0000 C   0  0  0  0  0  0  0  0  0  0  0  0
    0.0000    0.0000    0.0000 C   0  0  0  0  0  0  0  0  0  0  0  0
    0.0000    0.0000    0.0000 F   0  0  0  0  0  0  0  0  0  0  0  0
    0.0000    0.0000    0.0000 C   0  0  0  0  0  0  0  0  0  0  0  0
    0.0000    0.0000    0.0000 C   0  0  0  0  0  0  0  0  0  0  0  0
  1  2  1  0
  2  3  2  0
  2  4  2  0
  2  5  1  0
  5  6  1  0
  6  7  1  0
  7  8  2  0
  8  9  1  0
  9 10  1  0
 10 11  2  0
 11 12  1  0
 12 13  2  0
 13 14  1  0
 13 15  1  0
 15 16  2  0
 16  7  1  0
 16 10  1  0
M  END
>  <pIC50>  (378) 
4.52

>  <ChEMBL_ID>  (378) 
CHEMBL1084918

>  <document_journal>  (378) 
J. Med. Chem.

>  <bao_endpoint>  (378) 
BAO_0000190

>  <potential_duplicate>  (378) 
False

>  <uo_units>  (378) 
UO_0000065

>  <canonical_smiles>  (378) 
NS(=O)(=O)NCc1csc2ccc(F)cc12

>  <parent_molecule_chembl_id>  (378) 
CHEMBL1084918

>  <assay_type>  (378) 
B

>  <src_id>  (378) 
1

>  <ligand_efficiency>  (378) 
{u'le': u'0.39', u'bei': u'17.37', u'sei': u'4.16', u'lle': u'3.53'}

>  <standard_flag>  (378) 
True

>  <molecule_chembl_id>  (378) 
CHEMBL1084918

>  <target_organism>  (378) 
Homo sapiens

>  <standard_units>  (378) 
nM

>  <record_id>  (378) 
894799

>  <document_chembl_id>  (378) 
CHEMBL1153762

>  <bao_format>  (378) 
BAO_0000357

>  <data_validity_description>  (378) 
None

>  <activity_id>  (378) 
3231872

>  <standard_type>  (378) 
IC50

>  <target_chembl_id>  (378) 
CHEMBL205

>  <data_validity_comment>  (378) 
None

>  <published_value>  (378) 
30

>  <document_year>  (378) 
2009

>  <target_pref_name>  (378) 
Carbonic anhydrase II

>  <assay_chembl_id>  (378) 
CHEMBL1109265

>  <standard_relation>  (378) 
=

>  <assay_description>  (378) 
Inhibition of human carbonic anhydrase 2 by CO2 hydration assay

>  <published_relation>  (378) 
=

>  <standard_value>  (378) 
30000

>  <qudt_units>  (378) 
http://www.openphacts.org/units/Nanomolar

>  <target_tax_id>  (378) 
9606

>  <bao_label>  (378) 
single protein format

>  <published_units>  (378) 
uM

>  <pchembl_value>  (378) 
4.52

>  <published_type>  (378) 
IC50

>  <activity_comment>  (378) 
None

$$$$

     RDKit          

 16 17  0  0  0  0  0  0  0  0999 V2000
    0.0000    0.0000    0.0000 C   0  0  0  0  0  0  0  0  0  0  0  0
    0.0000    0.0000    0.0000 N   0  0  0  0  0  0  0  0  0  0  0  0
    0.0000    0.0000    0.0000 C   0  0  0  0  0  0  0  0  0  0  0  0
    0.0000    0.0000    0.0000 C   0  0  0  0  0  0  0  0  0  0  0  0
    0.0000    0.0000    0.0000 C   0  0  0  0  0  0  0  0  0  0  0  0
    0.0000    0.0000    0.0000 N   0  0  0  0  0  0  0  0  0  0  0  0
    0.0000    0.0000    0.0000 S   0  0  0  0  0  0  0  0  0  0  0  0
    0.0000    0.0000    0.0000 O   0  0  0  0  0  0  0  0  0  0  0  0
    0.0000    0.0000    0.0000 O   0  0  0  0  0  0  0  0  0  0  0  0
    0.0000    0.0000    0.0000 N   0  0  0  0  0  0  0  0  0  0  0  0
    0.0000    0.0000    0.0000 C   0  0  0  0  0  0  0  0  0  0  0  0
    0.0000    0.0000    0.0000 C   0  0  0  0  0  0  0  0  0  0  0  0
    0.0000    0.0000    0.0000 C   0  0  0  0  0  0  0  0  0  0  0  0
    0.0000    0.0000    0.0000 C   0  0  0  0  0  0  0  0  0  0  0  0
    0.0000    0.0000    0.0000 C   0  0  0  0  0  0  0  0  0  0  0  0
    0.0000    0.0000    0.0000 C   0  0  0  0  0  0  0  0  0  0  0  0
  1  2  1  0
  2  3  1  0
  3  4  2  0
  4  5  1  0
  5  6  1  0
  6  7  1  0
  7  8  2  0
  7  9  2  0
  7 10  1  0
  4 11  1  0
 11 12  2  0
 12 13  1  0
 13 14  2  0
 14 15  1  0
 15 16  2  0
 16  2  1  0
 16 11  1  0
M  END
>  <pIC50>  (379) 
4.32

>  <ChEMBL_ID>  (379) 
CHEMBL1084674

>  <document_journal>  (379) 
J. Med. Chem.

>  <bao_endpoint>  (379) 
BAO_0000190

>  <potential_duplicate>  (379) 
False

>  <uo_units>  (379) 
UO_0000065

>  <canonical_smiles>  (379) 
Cn1cc(CNS(=O)(=O)N)c2ccccc12

>  <parent_molecule_chembl_id>  (379) 
CHEMBL1084674

>  <assay_type>  (379) 
B

>  <src_id>  (379) 
1

>  <ligand_efficiency>  (379) 
{u'le': u'0.37', u'bei': u'18.05', u'sei': u'5.05', u'lle': u'3.89'}

>  <standard_flag>  (379) 
True

>  <molecule_chembl_id>  (379) 
CHEMBL1084674

>  <target_organism>  (379) 
Homo sapiens

>  <standard_units>  (379) 
nM

>  <record_id>  (379) 
894797

>  <document_chembl_id>  (379) 
CHEMBL1153762

>  <bao_format>  (379) 
BAO_0000357

>  <data_validity_description>  (379) 
None

>  <activity_id>  (379) 
3231873

>  <standard_type>  (379) 
IC50

>  <target_chembl_id>  (379) 
CHEMBL205

>  <data_validity_comment>  (379) 
None

>  <published_value>  (379) 
48

>  <document_year>  (379) 
2009

>  <target_pref_name>  (379) 
Carbonic anhydrase II

>  <assay_chembl_id>  (379) 
CHEMBL1109265

>  <standard_relation>  (379) 
=

>  <assay_description>  (379) 
Inhibition of human carbonic anhydrase 2 by CO2 hydration assay

>  <published_relation>  (379) 
=

>  <standard_value>  (379) 
48000

>  <qudt_units>  (379) 
http://www.openphacts.org/units/Nanomolar

>  <target_tax_id>  (379) 
9606

>  <bao_label>  (379) 
single protein format

>  <published_units>  (379) 
uM

>  <pchembl_value>  (379) 
4.32

>  <published_type>  (379) 
IC50

>  <activity_comment>  (379) 
None

$$$$

     RDKit          

 16 17  0  0  0  0  0  0  0  0999 V2000
    0.0000    0.0000    0.0000 C   0  0  0  0  0  0  0  0  0  0  0  0
    0.0000    0.0000    0.0000 C   0  0  0  0  0  0  0  0  0  0  0  0
    0.0000    0.0000    0.0000 O   0  0  0  0  0  0  0  0  0  0  0  0
    0.0000    0.0000    0.0000 C   0  0  0  0  0  0  0  0  0  0  0  0
    0.0000    0.0000    0.0000 C   0  0  0  0  0  0  0  0  0  0  0  0
    0.0000    0.0000    0.0000 C   0  0  0  0  0  0  0  0  0  0  0  0
    0.0000    0.0000    0.0000 C   0  0  0  0  0  0  0  0  0  0  0  0
    0.0000    0.0000    0.0000 C   0  0  0  0  0  0  0  0  0  0  0  0
    0.0000    0.0000    0.0000 C   0  0  0  0  0  0  0  0  0  0  0  0
    0.0000    0.0000    0.0000 C   0  0  0  0  0  0  0  0  0  0  0  0
    0.0000    0.0000    0.0000 C   0  0  0  0  0  0  0  0  0  0  0  0
    0.0000    0.0000    0.0000 N   0  0  0  0  0  0  0  0  0  0  0  0
    0.0000    0.0000    0.0000 S   0  0  0  0  0  0  0  0  0  0  0  0
    0.0000    0.0000    0.0000 O   0  0  0  0  0  0  0  0  0  0  0  0
    0.0000    0.0000    0.0000 O   0  0  0  0  0  0  0  0  0  0  0  0
    0.0000    0.0000    0.0000 N   0  0  0  0  0  0  0  0  0  0  0  0
  1  2  1  0
  2  3  1  0
  3  4  1  0
  4  5  2  0
  5  6  1  0
  6  7  2  0
  7  8  1  0
  8  9  2  0
  9 10  1  0
 10 11  1  0
 11 12  1  0
 12 13  1  0
 13 14  2  0
 13 15  2  0
 13 16  1  0
 10  2  2  0
  9  4  1  0
M  END
>  <pIC50>  (380) 
4.6

>  <ChEMBL_ID>  (380) 
CHEMBL1077134

>  <document_journal>  (380) 
J. Med. Chem.

>  <bao_endpoint>  (380) 
BAO_0000190

>  <potential_duplicate>  (380) 
False

>  <uo_units>  (380) 
UO_0000065

>  <canonical_smiles>  (380) 
Cc1oc2ccccc2c1CNS(=O)(=O)N

>  <parent_molecule_chembl_id>  (380) 
CHEMBL1077134

>  <assay_type>  (380) 
B

>  <src_id>  (380) 
1

>  <ligand_efficiency>  (380) 
{u'le': u'0.39', u'bei': u'19.15', u'sei': u'4.91', u'lle': u'4.22'}

>  <standard_flag>  (380) 
True

>  <molecule_chembl_id>  (380) 
CHEMBL1077134

>  <target_organism>  (380) 
Homo sapiens

>  <standard_units>  (380) 
nM

>  <record_id>  (380) 
894795

>  <document_chembl_id>  (380) 
CHEMBL1153762

>  <bao_format>  (380) 
BAO_0000357

>  <data_validity_description>  (380) 
None

>  <activity_id>  (380) 
3231874

>  <standard_type>  (380) 
IC50

>  <target_chembl_id>  (380) 
CHEMBL205

>  <data_validity_comment>  (380) 
None

>  <published_value>  (380) 
25

>  <document_year>  (380) 
2009

>  <target_pref_name>  (380) 
Carbonic anhydrase II

>  <assay_chembl_id>  (380) 
CHEMBL1109265

>  <standard_relation>  (380) 
=

>  <assay_description>  (380) 
Inhibition of human carbonic anhydrase 2 by CO2 hydration assay

>  <published_relation>  (380) 
=

>  <standard_value>  (380) 
25000

>  <qudt_units>  (380) 
http://www.openphacts.org/units/Nanomolar

>  <target_tax_id>  (380) 
9606

>  <bao_label>  (380) 
single protein format

>  <published_units>  (380) 
uM

>  <pchembl_value>  (380) 
4.6

>  <published_type>  (380) 
IC50

>  <activity_comment>  (380) 
None

$$$$

     RDKit          

 15 16  0  0  0  0  0  0  0  0999 V2000
    0.0000    0.0000    0.0000 N   0  0  0  0  0  0  0  0  0  0  0  0
    0.0000    0.0000    0.0000 S   0  0  0  0  0  0  0  0  0  0  0  0
    0.0000    0.0000    0.0000 O   0  0  0  0  0  0  0  0  0  0  0  0
    0.0000    0.0000    0.0000 O   0  0  0  0  0  0  0  0  0  0  0  0
    0.0000    0.0000    0.0000 N   0  0  0  0  0  0  0  0  0  0  0  0
    0.0000    0.0000    0.0000 C   0  0  0  0  0  0  0  0  0  0  0  0
    0.0000    0.0000    0.0000 C   0  0  0  0  0  0  0  0  0  0  0  0
    0.0000    0.0000    0.0000 C   0  0  0  0  0  0  0  0  0  0  0  0
    0.0000    0.0000    0.0000 O   0  0  0  0  0  0  0  0  0  0  0  0
    0.0000    0.0000    0.0000 C   0  0  0  0  0  0  0  0  0  0  0  0
    0.0000    0.0000    0.0000 C   0  0  0  0  0  0  0  0  0  0  0  0
    0.0000    0.0000    0.0000 C   0  0  0  0  0  0  0  0  0  0  0  0
    0.0000    0.0000    0.0000 C   0  0  0  0  0  0  0  0  0  0  0  0
    0.0000    0.0000    0.0000 C   0  0  0  0  0  0  0  0  0  0  0  0
    0.0000    0.0000    0.0000 C   0  0  0  0  0  0  0  0  0  0  0  0
  1  2  1  0
  2  3  2  0
  2  4  2  0
  2  5  1  0
  5  6  1  0
  6  7  1  0
  7  8  2  0
  8  9  1  0
  9 10  1  0
 10 11  2  0
 11 12  1  0
 12 13  2  0
 13 14  1  0
 14 15  2  0
 15  7  1  0
 15 10  1  0
M  END
>  <pIC50>  (381) 
5.15

>  <ChEMBL_ID>  (381) 
CHEMBL1077117

>  <document_journal>  (381) 
J. Med. Chem.

>  <bao_endpoint>  (381) 
BAO_0000190

>  <potential_duplicate>  (381) 
False

>  <uo_units>  (381) 
UO_0000065

>  <canonical_smiles>  (381) 
NS(=O)(=O)NCc1coc2ccccc12

>  <parent_molecule_chembl_id>  (381) 
CHEMBL1077117

>  <assay_type>  (381) 
B

>  <src_id>  (381) 
1

>  <ligand_efficiency>  (381) 
{u'le': u'0.47', u'bei': u'22.76', u'sei': u'5.49', u'lle': u'4.92'}

>  <standard_flag>  (381) 
True

>  <molecule_chembl_id>  (381) 
CHEMBL1077117

>  <target_organism>  (381) 
Homo sapiens

>  <standard_units>  (381) 
nM

>  <record_id>  (381) 
894794

>  <document_chembl_id>  (381) 
CHEMBL1153762

>  <bao_format>  (381) 
BAO_0000357

>  <data_validity_description>  (381) 
None

>  <activity_id>  (381) 
3231875

>  <standard_type>  (381) 
IC50

>  <target_chembl_id>  (381) 
CHEMBL205

>  <data_validity_comment>  (381) 
None

>  <published_value>  (381) 
7.1

>  <document_year>  (381) 
2009

>  <target_pref_name>  (381) 
Carbonic anhydrase II

>  <assay_chembl_id>  (381) 
CHEMBL1109265

>  <standard_relation>  (381) 
=

>  <assay_description>  (381) 
Inhibition of human carbonic anhydrase 2 by CO2 hydration assay

>  <published_relation>  (381) 
=

>  <standard_value>  (381) 
7100

>  <qudt_units>  (381) 
http://www.openphacts.org/units/Nanomolar

>  <target_tax_id>  (381) 
9606

>  <bao_label>  (381) 
single protein format

>  <published_units>  (381) 
uM

>  <pchembl_value>  (381) 
5.15

>  <published_type>  (381) 
IC50

>  <activity_comment>  (381) 
None

$$$$

     RDKit          

 15 16  0  0  0  0  0  0  0  0999 V2000
    0.0000    0.0000    0.0000 N   0  0  0  0  0  0  0  0  0  0  0  0
    0.0000    0.0000    0.0000 S   0  0  0  0  0  0  0  0  0  0  0  0
    0.0000    0.0000    0.0000 O   0  0  0  0  0  0  0  0  0  0  0  0
    0.0000    0.0000    0.0000 O   0  0  0  0  0  0  0  0  0  0  0  0
    0.0000    0.0000    0.0000 N   0  0  0  0  0  0  0  0  0  0  0  0
    0.0000    0.0000    0.0000 C   0  0  0  0  0  0  0  0  0  0  0  0
    0.0000    0.0000    0.0000 C   0  0  0  0  0  0  0  0  0  0  0  0
    0.0000    0.0000    0.0000 C   0  0  0  0  0  0  0  0  0  0  0  0
    0.0000    0.0000    0.0000 S   0  0  0  0  0  0  0  0  0  0  0  0
    0.0000    0.0000    0.0000 C   0  0  0  0  0  0  0  0  0  0  0  0
    0.0000    0.0000    0.0000 C   0  0  0  0  0  0  0  0  0  0  0  0
    0.0000    0.0000    0.0000 C   0  0  0  0  0  0  0  0  0  0  0  0
    0.0000    0.0000    0.0000 C   0  0  0  0  0  0  0  0  0  0  0  0
    0.0000    0.0000    0.0000 C   0  0  0  0  0  0  0  0  0  0  0  0
    0.0000    0.0000    0.0000 C   0  0  0  0  0  0  0  0  0  0  0  0
  1  2  1  0
  2  3  2  0
  2  4  2  0
  2  5  1  0
  5  6  1  0
  6  7  1  0
  7  8  2  0
  8  9  1  0
  9 10  1  0
 10 11  2  0
 11 12  1  0
 12 13  2  0
 13 14  1  0
 14 15  2  0
 15  7  1  0
 15 10  1  0
M  END
>  <pIC50>  (382) 
4.18

>  <ChEMBL_ID>  (382) 
CHEMBL466517

>  <document_journal>  (382) 
J. Med. Chem.

>  <bao_endpoint>  (382) 
BAO_0000190

>  <potential_duplicate>  (382) 
False

>  <uo_units>  (382) 
UO_0000065

>  <canonical_smiles>  (382) 
NS(=O)(=O)NCc1csc2ccccc12

>  <parent_molecule_chembl_id>  (382) 
CHEMBL466517

>  <assay_type>  (382) 
B

>  <src_id>  (382) 
1

>  <ligand_efficiency>  (382) 
{u'le': u'0.38', u'bei': u'17.25', u'sei': u'3.84', u'lle': u'3.39'}

>  <standard_flag>  (382) 
True

>  <molecule_chembl_id>  (382) 
CHEMBL466517

>  <target_organism>  (382) 
Homo sapiens

>  <standard_units>  (382) 
nM

>  <record_id>  (382) 
894793

>  <document_chembl_id>  (382) 
CHEMBL1153762

>  <bao_format>  (382) 
BAO_0000357

>  <data_validity_description>  (382) 
None

>  <activity_id>  (382) 
3231876

>  <standard_type>  (382) 
IC50

>  <target_chembl_id>  (382) 
CHEMBL205

>  <data_validity_comment>  (382) 
None

>  <published_value>  (382) 
66

>  <document_year>  (382) 
2009

>  <target_pref_name>  (382) 
Carbonic anhydrase II

>  <assay_chembl_id>  (382) 
CHEMBL1109266

>  <standard_relation>  (382) 
=

>  <assay_description>  (382) 
Inhibition of human carbonic anhydrase 2 by fluorimetric assay

>  <published_relation>  (382) 
=

>  <standard_value>  (382) 
66000

>  <qudt_units>  (382) 
http://www.openphacts.org/units/Nanomolar

>  <target_tax_id>  (382) 
9606

>  <bao_label>  (382) 
single protein format

>  <published_units>  (382) 
uM

>  <pchembl_value>  (382) 
4.18

>  <published_type>  (382) 
IC50

>  <activity_comment>  (382) 
None

$$$$

     RDKit          

 16 17  0  0  0  0  0  0  0  0999 V2000
    0.0000    0.0000    0.0000 N   0  0  0  0  0  0  0  0  0  0  0  0
    0.0000    0.0000    0.0000 S   0  0  0  0  0  0  0  0  0  0  0  0
    0.0000    0.0000    0.0000 O   0  0  0  0  0  0  0  0  0  0  0  0
    0.0000    0.0000    0.0000 O   0  0  0  0  0  0  0  0  0  0  0  0
    0.0000    0.0000    0.0000 N   0  0  0  0  0  0  0  0  0  0  0  0
    0.0000    0.0000    0.0000 C   0  0  0  0  0  0  0  0  0  0  0  0
    0.0000    0.0000    0.0000 C   0  0  0  0  0  0  0  0  0  0  0  0
    0.0000    0.0000    0.0000 C   0  0  0  0  0  0  0  0  0  0  0  0
    0.0000    0.0000    0.0000 S   0  0  0  0  0  0  0  0  0  0  0  0
    0.0000    0.0000    0.0000 C   0  0  0  0  0  0  0  0  0  0  0  0
    0.0000    0.0000    0.0000 C   0  0  0  0  0  0  0  0  0  0  0  0
    0.0000    0.0000    0.0000 C   0  0  0  0  0  0  0  0  0  0  0  0
    0.0000    0.0000    0.0000 C   0  0  0  0  0  0  0  0  0  0  0  0
    0.0000    0.0000    0.0000 Br  0  0  0  0  0  0  0  0  0  0  0  0
    0.0000    0.0000    0.0000 C   0  0  0  0  0  0  0  0  0  0  0  0
    0.0000    0.0000    0.0000 C   0  0  0  0  0  0  0  0  0  0  0  0
  1  2  1  0
  2  3  2  0
  2  4  2  0
  2  5  1  0
  5  6  1  0
  6  7  1  0
  7  8  2  0
  8  9  1  0
  9 10  1  0
 10 11  2  0
 11 12  1  0
 12 13  2  0
 13 14  1  0
 13 15  1  0
 15 16  2  0
 16  7  1  0
 16 10  1  0
M  END
>  <pIC50>  (383) 
4.0

>  <ChEMBL_ID>  (383) 
CHEMBL1084920

>  <document_journal>  (383) 
J. Med. Chem.

>  <bao_endpoint>  (383) 
BAO_0000190

>  <potential_duplicate>  (383) 
False

>  <uo_units>  (383) 
UO_0000065

>  <canonical_smiles>  (383) 
NS(=O)(=O)NCc1csc2ccc(Br)cc12

>  <parent_molecule_chembl_id>  (383) 
CHEMBL1084920

>  <assay_type>  (383) 
B

>  <src_id>  (383) 
1

>  <ligand_efficiency>  (383) 
{u'le': u'0.34', u'bei': u'12.45', u'sei': u'3.68', u'lle': u'2.46'}

>  <standard_flag>  (383) 
True

>  <molecule_chembl_id>  (383) 
CHEMBL1084920

>  <target_organism>  (383) 
Homo sapiens

>  <standard_units>  (383) 
nM

>  <record_id>  (383) 
894801

>  <document_chembl_id>  (383) 
CHEMBL1153762

>  <bao_format>  (383) 
BAO_0000357

>  <data_validity_description>  (383) 
None

>  <activity_id>  (383) 
3231877

>  <standard_type>  (383) 
IC50

>  <target_chembl_id>  (383) 
CHEMBL205

>  <data_validity_comment>  (383) 
None

>  <published_value>  (383) 
100

>  <document_year>  (383) 
2009

>  <target_pref_name>  (383) 
Carbonic anhydrase II

>  <assay_chembl_id>  (383) 
CHEMBL1109266

>  <standard_relation>  (383) 
=

>  <assay_description>  (383) 
Inhibition of human carbonic anhydrase 2 by fluorimetric assay

>  <published_relation>  (383) 
=

>  <standard_value>  (383) 
100000

>  <qudt_units>  (383) 
http://www.openphacts.org/units/Nanomolar

>  <target_tax_id>  (383) 
9606

>  <bao_label>  (383) 
single protein format

>  <published_units>  (383) 
uM

>  <pchembl_value>  (383) 
4

>  <published_type>  (383) 
IC50

>  <activity_comment>  (383) 
None

$$$$

     RDKit          

 16 17  0  0  0  0  0  0  0  0999 V2000
    0.0000    0.0000    0.0000 N   0  0  0  0  0  0  0  0  0  0  0  0
    0.0000    0.0000    0.0000 S   0  0  0  0  0  0  0  0  0  0  0  0
    0.0000    0.0000    0.0000 O   0  0  0  0  0  0  0  0  0  0  0  0
    0.0000    0.0000    0.0000 O   0  0  0  0  0  0  0  0  0  0  0  0
    0.0000    0.0000    0.0000 N   0  0  0  0  0  0  0  0  0  0  0  0
    0.0000    0.0000    0.0000 C   0  0  0  0  0  0  0  0  0  0  0  0
    0.0000    0.0000    0.0000 C   0  0  0  0  0  0  0  0  0  0  0  0
    0.0000    0.0000    0.0000 C   0  0  0  0  0  0  0  0  0  0  0  0
    0.0000    0.0000    0.0000 S   0  0  0  0  0  0  0  0  0  0  0  0
    0.0000    0.0000    0.0000 C   0  0  0  0  0  0  0  0  0  0  0  0
    0.0000    0.0000    0.0000 C   0  0  0  0  0  0  0  0  0  0  0  0
    0.0000    0.0000    0.0000 C   0  0  0  0  0  0  0  0  0  0  0  0
    0.0000    0.0000    0.0000 C   0  0  0  0  0  0  0  0  0  0  0  0
    0.0000    0.0000    0.0000 Cl  0  0  0  0  0  0  0  0  0  0  0  0
    0.0000    0.0000    0.0000 C   0  0  0  0  0  0  0  0  0  0  0  0
    0.0000    0.0000    0.0000 C   0  0  0  0  0  0  0  0  0  0  0  0
  1  2  1  0
  2  3  2  0
  2  4  2  0
  2  5  1  0
  5  6  1  0
  6  7  1  0
  7  8  2  0
  8  9  1  0
  9 10  1  0
 10 11  2  0
 11 12  1  0
 12 13  2  0
 13 14  1  0
 13 15  1  0
 15 16  2  0
 16  7  1  0
 16 10  1  0
M  END
>  <pIC50>  (384) 
5.08

>  <ChEMBL_ID>  (384) 
CHEMBL1084675

>  <document_journal>  (384) 
J. Med. Chem.

>  <bao_endpoint>  (384) 
BAO_0000190

>  <potential_duplicate>  (384) 
False

>  <uo_units>  (384) 
UO_0000065

>  <canonical_smiles>  (384) 
NS(=O)(=O)NCc1csc2ccc(Cl)cc12

>  <parent_molecule_chembl_id>  (384) 
CHEMBL1084675

>  <assay_type>  (384) 
B

>  <src_id>  (384) 
1

>  <ligand_efficiency>  (384) 
{u'le': u'0.43', u'bei': u'18.34', u'sei': u'4.66', u'lle': u'3.63'}

>  <standard_flag>  (384) 
True

>  <molecule_chembl_id>  (384) 
CHEMBL1084675

>  <target_organism>  (384) 
Homo sapiens

>  <standard_units>  (384) 
nM

>  <record_id>  (384) 
894798

>  <document_chembl_id>  (384) 
CHEMBL1153762

>  <bao_format>  (384) 
BAO_0000357

>  <data_validity_description>  (384) 
None

>  <activity_id>  (384) 
3231878

>  <standard_type>  (384) 
IC50

>  <target_chembl_id>  (384) 
CHEMBL205

>  <data_validity_comment>  (384) 
None

>  <published_value>  (384) 
8.4

>  <document_year>  (384) 
2009

>  <target_pref_name>  (384) 
Carbonic anhydrase II

>  <assay_chembl_id>  (384) 
CHEMBL1109266

>  <standard_relation>  (384) 
=

>  <assay_description>  (384) 
Inhibition of human carbonic anhydrase 2 by fluorimetric assay

>  <published_relation>  (384) 
=

>  <standard_value>  (384) 
8400

>  <qudt_units>  (384) 
http://www.openphacts.org/units/Nanomolar

>  <target_tax_id>  (384) 
9606

>  <bao_label>  (384) 
single protein format

>  <published_units>  (384) 
uM

>  <pchembl_value>  (384) 
5.08

>  <published_type>  (384) 
IC50

>  <activity_comment>  (384) 
None

$$$$

     RDKit          

 16 17  0  0  0  0  0  0  0  0999 V2000
    0.0000    0.0000    0.0000 C   0  0  0  0  0  0  0  0  0  0  0  0
    0.0000    0.0000    0.0000 C   0  0  0  0  0  0  0  0  0  0  0  0
    0.0000    0.0000    0.0000 C   0  0  0  0  0  0  0  0  0  0  0  0
    0.0000    0.0000    0.0000 C   0  0  0  0  0  0  0  0  0  0  0  0
    0.0000    0.0000    0.0000 C   0  0  0  0  0  0  0  0  0  0  0  0
    0.0000    0.0000    0.0000 S   0  0  0  0  0  0  0  0  0  0  0  0
    0.0000    0.0000    0.0000 C   0  0  0  0  0  0  0  0  0  0  0  0
    0.0000    0.0000    0.0000 C   0  0  0  0  0  0  0  0  0  0  0  0
    0.0000    0.0000    0.0000 C   0  0  0  0  0  0  0  0  0  0  0  0
    0.0000    0.0000    0.0000 N   0  0  0  0  0  0  0  0  0  0  0  0
    0.0000    0.0000    0.0000 S   0  0  0  0  0  0  0  0  0  0  0  0
    0.0000    0.0000    0.0000 O   0  0  0  0  0  0  0  0  0  0  0  0
    0.0000    0.0000    0.0000 O   0  0  0  0  0  0  0  0  0  0  0  0
    0.0000    0.0000    0.0000 N   0  0  0  0  0  0  0  0  0  0  0  0
    0.0000    0.0000    0.0000 C   0  0  0  0  0  0  0  0  0  0  0  0
    0.0000    0.0000    0.0000 C   0  0  0  0  0  0  0  0  0  0  0  0
  1  2  1  0
  2  3  2  0
  3  4  1  0
  4  5  2  0
  5  6  1  0
  6  7  1  0
  7  8  2  0
  8  9  1  0
  9 10  1  0
 10 11  1  0
 11 12  2  0
 11 13  2  0
 11 14  1  0
  8 15  1  0
 15 16  2  0
 16  2  1  0
 15  5  1  0
M  END
>  <pIC50>  (385) 
4.35

>  <ChEMBL_ID>  (385) 
CHEMBL1086777

>  <document_journal>  (385) 
J. Med. Chem.

>  <bao_endpoint>  (385) 
BAO_0000190

>  <potential_duplicate>  (385) 
False

>  <uo_units>  (385) 
UO_0000065

>  <canonical_smiles>  (385) 
Cc1ccc2scc(CNS(=O)(=O)N)c2c1

>  <parent_molecule_chembl_id>  (385) 
CHEMBL1086777

>  <assay_type>  (385) 
B

>  <src_id>  (385) 
1

>  <ligand_efficiency>  (385) 
{u'le': u'0.37', u'bei': u'16.96', u'sei': u'3.99', u'lle': u'3.07'}

>  <standard_flag>  (385) 
True

>  <molecule_chembl_id>  (385) 
CHEMBL1086777

>  <target_organism>  (385) 
Homo sapiens

>  <standard_units>  (385) 
nM

>  <record_id>  (385) 
894822

>  <document_chembl_id>  (385) 
CHEMBL1153762

>  <bao_format>  (385) 
BAO_0000357

>  <data_validity_description>  (385) 
None

>  <activity_id>  (385) 
3231880

>  <standard_type>  (385) 
IC50

>  <target_chembl_id>  (385) 
CHEMBL205

>  <data_validity_comment>  (385) 
None

>  <published_value>  (385) 
45

>  <document_year>  (385) 
2009

>  <target_pref_name>  (385) 
Carbonic anhydrase II

>  <assay_chembl_id>  (385) 
CHEMBL1109266

>  <standard_relation>  (385) 
=

>  <assay_description>  (385) 
Inhibition of human carbonic anhydrase 2 by fluorimetric assay

>  <published_relation>  (385) 
=

>  <standard_value>  (385) 
45000

>  <qudt_units>  (385) 
http://www.openphacts.org/units/Nanomolar

>  <target_tax_id>  (385) 
9606

>  <bao_label>  (385) 
single protein format

>  <published_units>  (385) 
uM

>  <pchembl_value>  (385) 
4.35

>  <published_type>  (385) 
IC50

>  <activity_comment>  (385) 
None

$$$$

     RDKit          

 27 29  0  0  0  0  0  0  0  0999 V2000
    0.0000    0.0000    0.0000 N   0  0  0  0  0  0  0  0  0  0  0  0
    0.0000    0.0000    0.0000 S   0  0  0  0  0  0  0  0  0  0  0  0
    0.0000    0.0000    0.0000 O   0  0  0  0  0  0  0  0  0  0  0  0
    0.0000    0.0000    0.0000 O   0  0  0  0  0  0  0  0  0  0  0  0
    0.0000    0.0000    0.0000 C   0  0  0  0  0  0  0  0  0  0  0  0
    0.0000    0.0000    0.0000 C   0  0  0  0  0  0  0  0  0  0  0  0
    0.0000    0.0000    0.0000 C   0  0  0  0  0  0  0  0  0  0  0  0
    0.0000    0.0000    0.0000 C   0  0  0  0  0  0  0  0  0  0  0  0
    0.0000    0.0000    0.0000 S   0  0  0  0  0  0  0  0  0  0  0  0
    0.0000    0.0000    0.0000 C   0  0  0  0  0  0  0  0  0  0  0  0
    0.0000    0.0000    0.0000 C   0  0  0  0  0  0  0  0  0  0  0  0
    0.0000    0.0000    0.0000 C   0  0  0  0  0  0  0  0  0  0  0  0
    0.0000    0.0000    0.0000 C   0  0  0  0  0  0  0  0  0  0  0  0
    0.0000    0.0000    0.0000 C   0  0  0  0  0  0  0  0  0  0  0  0
    0.0000    0.0000    0.0000 C   0  0  0  0  0  0  0  0  0  0  0  0
    0.0000    0.0000    0.0000 C   0  0  0  0  0  0  0  0  0  0  0  0
    0.0000    0.0000    0.0000 C   0  0  0  0  0  0  0  0  0  0  0  0
    0.0000    0.0000    0.0000 C   0  0  0  0  0  0  0  0  0  0  0  0
    0.0000    0.0000    0.0000 O   0  0  0  0  0  0  0  0  0  0  0  0
    0.0000    0.0000    0.0000 N   0  0  0  0  0  0  0  0  0  0  0  0
    0.0000    0.0000    0.0000 C   0  0  0  0  0  0  0  0  0  0  0  0
    0.0000    0.0000    0.0000 C   0  0  0  0  0  0  0  0  0  0  0  0
    0.0000    0.0000    0.0000 C   0  0  0  0  0  0  0  0  0  0  0  0
    0.0000    0.0000    0.0000 C   0  0  0  0  0  0  0  0  0  0  0  0
    0.0000    0.0000    0.0000 C   0  0  0  0  0  0  0  0  0  0  0  0
    0.0000    0.0000    0.0000 C   0  0  0  0  0  0  0  0  0  0  0  0
    0.0000    0.0000    0.0000 C   0  0  0  0  0  0  0  0  0  0  0  0
  1  2  1  0
  2  3  2  0
  2  4  2  0
  2  5  1  0
  5  6  2  0
  6  7  1  0
  7  8  2  0
  8  9  1  0
  9 10  1  0
 10 11  2  0
 11 12  1  0
 12 13  2  0
 13 14  1  0
 14 15  2  0
  8 16  1  0
 16 17  2  0
 16 18  1  0
 18 19  2  0
 18 20  1  0
 20 21  1  0
 21 22  1  0
 22 23  2  0
 23 24  1  0
 24 25  2  0
 25 26  1  0
 26 27  2  0
 17  5  1  0
 15 10  1  0
 27 22  1  0
M  END
>  <pIC50>  (386) 
7.91

>  <ChEMBL_ID>  (386) 
CHEMBL1098496

>  <document_journal>  (386) 
Bioorg. Med. Chem.

>  <bao_endpoint>  (386) 
BAO_0000190

>  <potential_duplicate>  (386) 
False

>  <uo_units>  (386) 
UO_0000065

>  <canonical_smiles>  (386) 
NS(=O)(=O)c1ccc(Sc2ccccc2)c(c1)C(=O)NCc3ccccc3

>  <parent_molecule_chembl_id>  (386) 
CHEMBL1098496

>  <assay_type>  (386) 
B

>  <src_id>  (386) 
1

>  <ligand_efficiency>  (386) 
{u'le': u'0.4', u'bei': u'19.85', u'sei': u'6.43', u'lle': u'4.46'}

>  <standard_flag>  (386) 
True

>  <molecule_chembl_id>  (386) 
CHEMBL1098496

>  <target_organism>  (386) 
Homo sapiens

>  <standard_units>  (386) 
nM

>  <record_id>  (386) 
909463

>  <document_chembl_id>  (386) 
CHEMBL1157929

>  <bao_format>  (386) 
BAO_0000357

>  <data_validity_description>  (386) 
None

>  <activity_id>  (386) 
3294832

>  <standard_type>  (386) 
IC50

>  <target_chembl_id>  (386) 
CHEMBL205

>  <data_validity_comment>  (386) 
None

>  <published_value>  (386) 
12.3

>  <document_year>  (386) 
2010

>  <target_pref_name>  (386) 
Carbonic anhydrase II

>  <assay_chembl_id>  (386) 
CHEMBL1106608

>  <standard_relation>  (386) 
=

>  <assay_description>  (386) 
Inhibition of carbonic anhydrase 2

>  <published_relation>  (386) 
=

>  <standard_value>  (386) 
12.3

>  <qudt_units>  (386) 
http://www.openphacts.org/units/Nanomolar

>  <target_tax_id>  (386) 
9606

>  <bao_label>  (386) 
single protein format

>  <published_units>  (386) 
nM

>  <pchembl_value>  (386) 
7.91

>  <published_type>  (386) 
IC50

>  <activity_comment>  (386) 
None

$$$$

     RDKit          

 22 23  0  0  0  0  0  0  0  0999 V2000
    0.0000    0.0000    0.0000 C   0  0  0  0  0  0  0  0  0  0  0  0
    0.0000    0.0000    0.0000 C   0  0  0  0  0  0  0  0  0  0  0  0
    0.0000    0.0000    0.0000 N   0  0  0  0  0  0  0  0  0  0  0  0
    0.0000    0.0000    0.0000 C   0  0  0  0  0  0  0  0  0  0  0  0
    0.0000    0.0000    0.0000 O   0  0  0  0  0  0  0  0  0  0  0  0
    0.0000    0.0000    0.0000 C   0  0  0  0  0  0  0  0  0  0  0  0
    0.0000    0.0000    0.0000 C   0  0  0  0  0  0  0  0  0  0  0  0
    0.0000    0.0000    0.0000 C   0  0  0  0  0  0  0  0  0  0  0  0
    0.0000    0.0000    0.0000 C   0  0  0  0  0  0  0  0  0  0  0  0
    0.0000    0.0000    0.0000 C   0  0  0  0  0  0  0  0  0  0  0  0
    0.0000    0.0000    0.0000 C   0  0  0  0  0  0  0  0  0  0  0  0
    0.0000    0.0000    0.0000 S   0  0  0  0  0  0  0  0  0  0  0  0
    0.0000    0.0000    0.0000 C   0  0  0  0  0  0  0  0  0  0  0  0
    0.0000    0.0000    0.0000 C   0  0  0  0  0  0  0  0  0  0  0  0
    0.0000    0.0000    0.0000 C   0  0  0  0  0  0  0  0  0  0  0  0
    0.0000    0.0000    0.0000 C   0  0  0  0  0  0  0  0  0  0  0  0
    0.0000    0.0000    0.0000 C   0  0  0  0  0  0  0  0  0  0  0  0
    0.0000    0.0000    0.0000 C   0  0  0  0  0  0  0  0  0  0  0  0
    0.0000    0.0000    0.0000 S   0  0  0  0  0  0  0  0  0  0  0  0
    0.0000    0.0000    0.0000 O   0  0  0  0  0  0  0  0  0  0  0  0
    0.0000    0.0000    0.0000 O   0  0  0  0  0  0  0  0  0  0  0  0
    0.0000    0.0000    0.0000 N   0  0  0  0  0  0  0  0  0  0  0  0
  1  2  1  0
  2  3  1  0
  3  4  1  0
  4  5  2  0
  4  6  1  0
  6  7  2  0
  7  8  1  0
  8  9  2  0
  9 10  1  0
 10 11  2  0
 11 12  1  0
 12 13  1  0
 13 14  2  0
 14 15  1  0
 15 16  2  0
 16 17  1  0
 17 18  2  0
  8 19  1  0
 19 20  2  0
 19 21  2  0
 19 22  1  0
 11  6  1  0
 18 13  1  0
M  END
>  <pIC50>  (387) 
7.67

>  <ChEMBL_ID>  (387) 
CHEMBL1098204

>  <document_journal>  (387) 
Bioorg. Med. Chem.

>  <bao_endpoint>  (387) 
BAO_0000190

>  <potential_duplicate>  (387) 
False

>  <uo_units>  (387) 
UO_0000065

>  <canonical_smiles>  (387) 
CCNC(=O)c1cc(ccc1Sc2ccccc2)S(=O)(=O)N

>  <parent_molecule_chembl_id>  (387) 
CHEMBL1098204

>  <assay_type>  (387) 
B

>  <src_id>  (387) 
1

>  <ligand_efficiency>  (387) 
{u'le': u'0.48', u'bei': u'22.8', u'sei': u'6.24', u'lle': u'5.46'}

>  <standard_flag>  (387) 
True

>  <molecule_chembl_id>  (387) 
CHEMBL1098204

>  <target_organism>  (387) 
Homo sapiens

>  <standard_units>  (387) 
nM

>  <record_id>  (387) 
909557

>  <document_chembl_id>  (387) 
CHEMBL1157929

>  <bao_format>  (387) 
BAO_0000357

>  <data_validity_description>  (387) 
None

>  <activity_id>  (387) 
3294833

>  <standard_type>  (387) 
IC50

>  <target_chembl_id>  (387) 
CHEMBL205

>  <data_validity_comment>  (387) 
None

>  <published_value>  (387) 
21.3

>  <document_year>  (387) 
2010

>  <target_pref_name>  (387) 
Carbonic anhydrase II

>  <assay_chembl_id>  (387) 
CHEMBL1106608

>  <standard_relation>  (387) 
=

>  <assay_description>  (387) 
Inhibition of carbonic anhydrase 2

>  <published_relation>  (387) 
=

>  <standard_value>  (387) 
21.3

>  <qudt_units>  (387) 
http://www.openphacts.org/units/Nanomolar

>  <target_tax_id>  (387) 
9606

>  <bao_label>  (387) 
single protein format

>  <published_units>  (387) 
nM

>  <pchembl_value>  (387) 
7.67

>  <published_type>  (387) 
IC50

>  <activity_comment>  (387) 
None

$$$$

     RDKit          

 27 29  0  0  0  0  0  0  0  0999 V2000
    0.0000    0.0000    0.0000 N   0  0  0  0  0  0  0  0  0  0  0  0
    0.0000    0.0000    0.0000 S   0  0  0  0  0  0  0  0  0  0  0  0
    0.0000    0.0000    0.0000 O   0  0  0  0  0  0  0  0  0  0  0  0
    0.0000    0.0000    0.0000 O   0  0  0  0  0  0  0  0  0  0  0  0
    0.0000    0.0000    0.0000 C   0  0  0  0  0  0  0  0  0  0  0  0
    0.0000    0.0000    0.0000 C   0  0  0  0  0  0  0  0  0  0  0  0
    0.0000    0.0000    0.0000 C   0  0  0  0  0  0  0  0  0  0  0  0
    0.0000    0.0000    0.0000 C   0  0  0  0  0  0  0  0  0  0  0  0
    0.0000    0.0000    0.0000 O   0  0  0  0  0  0  0  0  0  0  0  0
    0.0000    0.0000    0.0000 C   0  0  0  0  0  0  0  0  0  0  0  0
    0.0000    0.0000    0.0000 C   0  0  0  0  0  0  0  0  0  0  0  0
    0.0000    0.0000    0.0000 C   0  0  0  0  0  0  0  0  0  0  0  0
    0.0000    0.0000    0.0000 C   0  0  0  0  0  0  0  0  0  0  0  0
    0.0000    0.0000    0.0000 C   0  0  0  0  0  0  0  0  0  0  0  0
    0.0000    0.0000    0.0000 C   0  0  0  0  0  0  0  0  0  0  0  0
    0.0000    0.0000    0.0000 C   0  0  0  0  0  0  0  0  0  0  0  0
    0.0000    0.0000    0.0000 C   0  0  0  0  0  0  0  0  0  0  0  0
    0.0000    0.0000    0.0000 C   0  0  0  0  0  0  0  0  0  0  0  0
    0.0000    0.0000    0.0000 O   0  0  0  0  0  0  0  0  0  0  0  0
    0.0000    0.0000    0.0000 N   0  0  0  0  0  0  0  0  0  0  0  0
    0.0000    0.0000    0.0000 C   0  0  0  0  0  0  0  0  0  0  0  0
    0.0000    0.0000    0.0000 C   0  0  0  0  0  0  0  0  0  0  0  0
    0.0000    0.0000    0.0000 C   0  0  0  0  0  0  0  0  0  0  0  0
    0.0000    0.0000    0.0000 C   0  0  0  0  0  0  0  0  0  0  0  0
    0.0000    0.0000    0.0000 C   0  0  0  0  0  0  0  0  0  0  0  0
    0.0000    0.0000    0.0000 C   0  0  0  0  0  0  0  0  0  0  0  0
    0.0000    0.0000    0.0000 C   0  0  0  0  0  0  0  0  0  0  0  0
  1  2  1  0
  2  3  2  0
  2  4  2  0
  2  5  1  0
  5  6  2  0
  6  7  1  0
  7  8  2  0
  8  9  1  0
  9 10  1  0
 10 11  2  0
 11 12  1  0
 12 13  2  0
 13 14  1  0
 14 15  2  0
  8 16  1  0
 16 17  2  0
 16 18  1  0
 18 19  2  0
 18 20  1  0
 20 21  1  0
 21 22  1  0
 22 23  2  0
 23 24  1  0
 24 25  2  0
 25 26  1  0
 26 27  2  0
 17  5  1  0
 15 10  1  0
 27 22  1  0
M  END
>  <pIC50>  (388) 
7.45

>  <ChEMBL_ID>  (388) 
CHEMBL1098205

>  <document_journal>  (388) 
Bioorg. Med. Chem.

>  <bao_endpoint>  (388) 
BAO_0000190

>  <potential_duplicate>  (388) 
False

>  <uo_units>  (388) 
UO_0000065

>  <canonical_smiles>  (388) 
NS(=O)(=O)c1ccc(Oc2ccccc2)c(c1)C(=O)NCc3ccccc3

>  <parent_molecule_chembl_id>  (388) 
CHEMBL1098205

>  <assay_type>  (388) 
B

>  <src_id>  (388) 
1

>  <ligand_efficiency>  (388) 
{u'le': u'0.38', u'bei': u'19.47', u'sei': u'6.97', u'lle': u'4.55'}

>  <standard_flag>  (388) 
True

>  <molecule_chembl_id>  (388) 
CHEMBL1098205

>  <target_organism>  (388) 
Homo sapiens

>  <standard_units>  (388) 
nM

>  <record_id>  (388) 
909558

>  <document_chembl_id>  (388) 
CHEMBL1157929

>  <bao_format>  (388) 
BAO_0000357

>  <data_validity_description>  (388) 
None

>  <activity_id>  (388) 
3294834

>  <standard_type>  (388) 
IC50

>  <target_chembl_id>  (388) 
CHEMBL205

>  <data_validity_comment>  (388) 
None

>  <published_value>  (388) 
35.9

>  <document_year>  (388) 
2010

>  <target_pref_name>  (388) 
Carbonic anhydrase II

>  <assay_chembl_id>  (388) 
CHEMBL1106608

>  <standard_relation>  (388) 
=

>  <assay_description>  (388) 
Inhibition of carbonic anhydrase 2

>  <published_relation>  (388) 
=

>  <standard_value>  (388) 
35.9

>  <qudt_units>  (388) 
http://www.openphacts.org/units/Nanomolar

>  <target_tax_id>  (388) 
9606

>  <bao_label>  (388) 
single protein format

>  <published_units>  (388) 
nM

>  <pchembl_value>  (388) 
7.45

>  <published_type>  (388) 
IC50

>  <activity_comment>  (388) 
None

$$$$

     RDKit          

 28 30  0  0  0  0  0  0  0  0999 V2000
    0.0000    0.0000    0.0000 N   0  0  0  0  0  0  0  0  0  0  0  0
    0.0000    0.0000    0.0000 S   0  0  0  0  0  0  0  0  0  0  0  0
    0.0000    0.0000    0.0000 O   0  0  0  0  0  0  0  0  0  0  0  0
    0.0000    0.0000    0.0000 O   0  0  0  0  0  0  0  0  0  0  0  0
    0.0000    0.0000    0.0000 C   0  0  0  0  0  0  0  0  0  0  0  0
    0.0000    0.0000    0.0000 C   0  0  0  0  0  0  0  0  0  0  0  0
    0.0000    0.0000    0.0000 C   0  0  0  0  0  0  0  0  0  0  0  0
    0.0000    0.0000    0.0000 C   0  0  0  0  0  0  0  0  0  0  0  0
    0.0000    0.0000    0.0000 S   0  0  0  0  0  0  0  0  0  0  0  0
    0.0000    0.0000    0.0000 C   0  0  0  0  0  0  0  0  0  0  0  0
    0.0000    0.0000    0.0000 C   0  0  0  0  0  0  0  0  0  0  0  0
    0.0000    0.0000    0.0000 C   0  0  0  0  0  0  0  0  0  0  0  0
    0.0000    0.0000    0.0000 C   0  0  0  0  0  0  0  0  0  0  0  0
    0.0000    0.0000    0.0000 C   0  0  0  0  0  0  0  0  0  0  0  0
    0.0000    0.0000    0.0000 C   0  0  0  0  0  0  0  0  0  0  0  0
    0.0000    0.0000    0.0000 C   0  0  0  0  0  0  0  0  0  0  0  0
    0.0000    0.0000    0.0000 C   0  0  0  0  0  0  0  0  0  0  0  0
    0.0000    0.0000    0.0000 C   0  0  0  0  0  0  0  0  0  0  0  0
    0.0000    0.0000    0.0000 C   0  0  0  0  0  0  0  0  0  0  0  0
    0.0000    0.0000    0.0000 O   0  0  0  0  0  0  0  0  0  0  0  0
    0.0000    0.0000    0.0000 N   0  0  0  0  0  0  0  0  0  0  0  0
    0.0000    0.0000    0.0000 C   0  0  0  0  0  0  0  0  0  0  0  0
    0.0000    0.0000    0.0000 C   0  0  0  0  0  0  0  0  0  0  0  0
    0.0000    0.0000    0.0000 C   0  0  0  0  0  0  0  0  0  0  0  0
    0.0000    0.0000    0.0000 C   0  0  0  0  0  0  0  0  0  0  0  0
    0.0000    0.0000    0.0000 C   0  0  0  0  0  0  0  0  0  0  0  0
    0.0000    0.0000    0.0000 C   0  0  0  0  0  0  0  0  0  0  0  0
    0.0000    0.0000    0.0000 C   0  0  0  0  0  0  0  0  0  0  0  0
  1  2  1  0
  2  3  2  0
  2  4  2  0
  2  5  1  0
  5  6  2  0
  6  7  1  0
  7  8  2  0
  8  9  1  0
  9 10  1  0
 10 11  1  0
 11 12  2  0
 12 13  1  0
 13 14  2  0
 14 15  1  0
 15 16  2  0
  8 17  1  0
 17 18  2  0
 17 19  1  0
 19 20  2  0
 19 21  1  0
 21 22  1  0
 22 23  1  0
 23 24  2  0
 24 25  1  0
 25 26  2  0
 26 27  1  0
 27 28  2  0
 18  5  1  0
 16 11  1  0
 28 23  1  0
M  END
>  <pIC50>  (389) 
8.0

>  <ChEMBL_ID>  (389) 
CHEMBL1098206

>  <document_journal>  (389) 
Bioorg. Med. Chem.

>  <bao_endpoint>  (389) 
BAO_0000190

>  <potential_duplicate>  (389) 
False

>  <uo_units>  (389) 
UO_0000065

>  <canonical_smiles>  (389) 
NS(=O)(=O)c1ccc(SCc2ccccc2)c(c1)C(=O)NCc3ccccc3

>  <parent_molecule_chembl_id>  (389) 
CHEMBL1098206

>  <assay_type>  (389) 
B

>  <src_id>  (389) 
1

>  <ligand_efficiency>  (389) 
{u'le': u'0.39', u'bei': u'19.38', u'sei': u'6.5', u'lle': u'4.55'}

>  <standard_flag>  (389) 
True

>  <molecule_chembl_id>  (389) 
CHEMBL1098206

>  <target_organism>  (389) 
Homo sapiens

>  <standard_units>  (389) 
nM

>  <record_id>  (389) 
909559

>  <document_chembl_id>  (389) 
CHEMBL1157929

>  <bao_format>  (389) 
BAO_0000357

>  <data_validity_description>  (389) 
None

>  <activity_id>  (389) 
3294835

>  <standard_type>  (389) 
IC50

>  <target_chembl_id>  (389) 
CHEMBL205

>  <data_validity_comment>  (389) 
None

>  <published_value>  (389) 
10.1

>  <document_year>  (389) 
2010

>  <target_pref_name>  (389) 
Carbonic anhydrase II

>  <assay_chembl_id>  (389) 
CHEMBL1106608

>  <standard_relation>  (389) 
=

>  <assay_description>  (389) 
Inhibition of carbonic anhydrase 2

>  <published_relation>  (389) 
=

>  <standard_value>  (389) 
10.1

>  <qudt_units>  (389) 
http://www.openphacts.org/units/Nanomolar

>  <target_tax_id>  (389) 
9606

>  <bao_label>  (389) 
single protein format

>  <published_units>  (389) 
nM

>  <pchembl_value>  (389) 
8

>  <published_type>  (389) 
IC50

>  <activity_comment>  (389) 
None

$$$$

     RDKit          

 29 31  0  0  0  0  0  0  0  0999 V2000
    0.0000    0.0000    0.0000 N   0  0  0  0  0  0  0  0  0  0  0  0
    0.0000    0.0000    0.0000 S   0  0  0  0  0  0  0  0  0  0  0  0
    0.0000    0.0000    0.0000 O   0  0  0  0  0  0  0  0  0  0  0  0
    0.0000    0.0000    0.0000 O   0  0  0  0  0  0  0  0  0  0  0  0
    0.0000    0.0000    0.0000 C   0  0  0  0  0  0  0  0  0  0  0  0
    0.0000    0.0000    0.0000 C   0  0  0  0  0  0  0  0  0  0  0  0
    0.0000    0.0000    0.0000 C   0  0  0  0  0  0  0  0  0  0  0  0
    0.0000    0.0000    0.0000 C   0  0  0  0  0  0  0  0  0  0  0  0
    0.0000    0.0000    0.0000 S   0  0  0  0  0  0  0  0  0  0  0  0
    0.0000    0.0000    0.0000 C   0  0  0  0  0  0  0  0  0  0  0  0
    0.0000    0.0000    0.0000 C   0  0  0  0  0  0  0  0  0  0  0  0
    0.0000    0.0000    0.0000 C   0  0  0  0  0  0  0  0  0  0  0  0
    0.0000    0.0000    0.0000 C   0  0  0  0  0  0  0  0  0  0  0  0
    0.0000    0.0000    0.0000 C   0  0  0  0  0  0  0  0  0  0  0  0
    0.0000    0.0000    0.0000 C   0  0  0  0  0  0  0  0  0  0  0  0
    0.0000    0.0000    0.0000 C   0  0  0  0  0  0  0  0  0  0  0  0
    0.0000    0.0000    0.0000 O   0  0  0  0  0  0  0  0  0  0  0  0
    0.0000    0.0000    0.0000 C   0  0  0  0  0  0  0  0  0  0  0  0
    0.0000    0.0000    0.0000 C   0  0  0  0  0  0  0  0  0  0  0  0
    0.0000    0.0000    0.0000 C   0  0  0  0  0  0  0  0  0  0  0  0
    0.0000    0.0000    0.0000 O   0  0  0  0  0  0  0  0  0  0  0  0
    0.0000    0.0000    0.0000 N   0  0  0  0  0  0  0  0  0  0  0  0
    0.0000    0.0000    0.0000 C   0  0  0  0  0  0  0  0  0  0  0  0
    0.0000    0.0000    0.0000 C   0  0  0  0  0  0  0  0  0  0  0  0
    0.0000    0.0000    0.0000 C   0  0  0  0  0  0  0  0  0  0  0  0
    0.0000    0.0000    0.0000 C   0  0  0  0  0  0  0  0  0  0  0  0
    0.0000    0.0000    0.0000 C   0  0  0  0  0  0  0  0  0  0  0  0
    0.0000    0.0000    0.0000 C   0  0  0  0  0  0  0  0  0  0  0  0
    0.0000    0.0000    0.0000 N   0  0  0  0  0  0  0  0  0  0  0  0
  1  2  1  0
  2  3  2  0
  2  4  2  0
  2  5  1  0
  5  6  2  0
  6  7  1  0
  7  8  2  0
  8  9  1  0
  9 10  1  0
 10 11  2  0
 11 12  1  0
 12 13  2  0
 13 14  1  0
 14 15  2  0
 15 16  1  0
 16 17  1  0
  8 18  1  0
 18 19  2  0
 18 20  1  0
 20 21  2  0
 20 22  1  0
 22 23  1  0
 23 24  1  0
 24 25  2  0
 25 26  1  0
 26 27  2  0
 27 28  1  0
 28 29  2  0
 19  5  1  0
 15 10  1  0
 29 24  1  0
M  END
>  <pIC50>  (390) 
6.98

>  <ChEMBL_ID>  (390) 
CHEMBL1098207

>  <document_journal>  (390) 
Bioorg. Med. Chem.

>  <bao_endpoint>  (390) 
BAO_0000190

>  <potential_duplicate>  (390) 
False

>  <uo_units>  (390) 
UO_0000065

>  <canonical_smiles>  (390) 
NS(=O)(=O)c1ccc(Sc2ccccc2CO)c(c1)C(=O)NCc3ccccn3

>  <parent_molecule_chembl_id>  (390) 
CHEMBL1098207

>  <assay_type>  (390) 
B

>  <src_id>  (390) 
1

>  <ligand_efficiency>  (390) 
{u'le': u'0.33', u'bei': u'16.24', u'sei': u'4.47', u'lle': u'5.06'}

>  <standard_flag>  (390) 
True

>  <molecule_chembl_id>  (390) 
CHEMBL1098207

>  <target_organism>  (390) 
Homo sapiens

>  <standard_units>  (390) 
nM

>  <record_id>  (390) 
909560

>  <document_chembl_id>  (390) 
CHEMBL1157929

>  <bao_format>  (390) 
BAO_0000357

>  <data_validity_description>  (390) 
None

>  <activity_id>  (390) 
3294836

>  <standard_type>  (390) 
IC50

>  <target_chembl_id>  (390) 
CHEMBL205

>  <data_validity_comment>  (390) 
None

>  <published_value>  (390) 
106

>  <document_year>  (390) 
2010

>  <target_pref_name>  (390) 
Carbonic anhydrase II

>  <assay_chembl_id>  (390) 
CHEMBL1106608

>  <standard_relation>  (390) 
=

>  <assay_description>  (390) 
Inhibition of carbonic anhydrase 2

>  <published_relation>  (390) 
=

>  <standard_value>  (390) 
106

>  <qudt_units>  (390) 
http://www.openphacts.org/units/Nanomolar

>  <target_tax_id>  (390) 
9606

>  <bao_label>  (390) 
single protein format

>  <published_units>  (390) 
nM

>  <pchembl_value>  (390) 
6.98

>  <published_type>  (390) 
IC50

>  <activity_comment>  (390) 
None

$$$$

     RDKit          

 27 29  0  0  0  0  0  0  0  0999 V2000
    0.0000    0.0000    0.0000 N   0  0  0  0  0  0  0  0  0  0  0  0
    0.0000    0.0000    0.0000 S   0  0  0  0  0  0  0  0  0  0  0  0
    0.0000    0.0000    0.0000 O   0  0  0  0  0  0  0  0  0  0  0  0
    0.0000    0.0000    0.0000 O   0  0  0  0  0  0  0  0  0  0  0  0
    0.0000    0.0000    0.0000 C   0  0  0  0  0  0  0  0  0  0  0  0
    0.0000    0.0000    0.0000 C   0  0  0  0  0  0  0  0  0  0  0  0
    0.0000    0.0000    0.0000 C   0  0  0  0  0  0  0  0  0  0  0  0
    0.0000    0.0000    0.0000 C   0  0  0  0  0  0  0  0  0  0  0  0
    0.0000    0.0000    0.0000 S   0  0  0  0  0  0  0  0  0  0  0  0
    0.0000    0.0000    0.0000 C   0  0  0  0  0  0  0  0  0  0  0  0
    0.0000    0.0000    0.0000 C   0  0  0  0  0  0  0  0  0  0  0  0
    0.0000    0.0000    0.0000 C   0  0  0  0  0  0  0  0  0  0  0  0
    0.0000    0.0000    0.0000 C   0  0  0  0  0  0  0  0  0  0  0  0
    0.0000    0.0000    0.0000 C   0  0  0  0  0  0  0  0  0  0  0  0
    0.0000    0.0000    0.0000 N   0  0  0  0  0  0  0  0  0  0  0  0
    0.0000    0.0000    0.0000 C   0  0  0  0  0  0  0  0  0  0  0  0
    0.0000    0.0000    0.0000 C   0  0  0  0  0  0  0  0  0  0  0  0
    0.0000    0.0000    0.0000 C   0  0  0  0  0  0  0  0  0  0  0  0
    0.0000    0.0000    0.0000 O   0  0  0  0  0  0  0  0  0  0  0  0
    0.0000    0.0000    0.0000 N   0  0  0  0  0  0  0  0  0  0  0  0
    0.0000    0.0000    0.0000 C   0  0  0  0  0  0  0  0  0  0  0  0
    0.0000    0.0000    0.0000 C   0  0  0  0  0  0  0  0  0  0  0  0
    0.0000    0.0000    0.0000 C   0  0  0  0  0  0  0  0  0  0  0  0
    0.0000    0.0000    0.0000 C   0  0  0  0  0  0  0  0  0  0  0  0
    0.0000    0.0000    0.0000 C   0  0  0  0  0  0  0  0  0  0  0  0
    0.0000    0.0000    0.0000 C   0  0  0  0  0  0  0  0  0  0  0  0
    0.0000    0.0000    0.0000 N   0  0  0  0  0  0  0  0  0  0  0  0
  1  2  1  0
  2  3  2  0
  2  4  2  0
  2  5  1  0
  5  6  2  0
  6  7  1  0
  7  8  2  0
  8  9  1  0
  9 10  1  0
 10 11  2  0
 11 12  1  0
 12 13  2  0
 13 14  1  0
 14 15  2  0
  8 16  1  0
 16 17  2  0
 16 18  1  0
 18 19  2  0
 18 20  1  0
 20 21  1  0
 21 22  1  0
 22 23  2  0
 23 24  1  0
 24 25  2  0
 25 26  1  0
 26 27  2  0
 17  5  1  0
 15 10  1  0
 27 22  1  0
M  END
>  <pIC50>  (391) 
7.08

>  <ChEMBL_ID>  (391) 
CHEMBL1098208

>  <document_journal>  (391) 
Bioorg. Med. Chem.

>  <bao_endpoint>  (391) 
BAO_0000190

>  <potential_duplicate>  (391) 
False

>  <uo_units>  (391) 
UO_0000065

>  <canonical_smiles>  (391) 
NS(=O)(=O)c1ccc(Sc2ccccn2)c(c1)C(=O)NCc3ccccn3

>  <parent_molecule_chembl_id>  (391) 
CHEMBL1098208

>  <assay_type>  (391) 
B

>  <src_id>  (391) 
1

>  <ligand_efficiency>  (391) 
{u'le': u'0.36', u'bei': u'17.67', u'sei': u'4.76', u'lle': u'5.18'}

>  <standard_flag>  (391) 
True

>  <molecule_chembl_id>  (391) 
CHEMBL1098208

>  <target_organism>  (391) 
Homo sapiens

>  <standard_units>  (391) 
nM

>  <record_id>  (391) 
909561

>  <document_chembl_id>  (391) 
CHEMBL1157929

>  <bao_format>  (391) 
BAO_0000357

>  <data_validity_description>  (391) 
None

>  <activity_id>  (391) 
3294837

>  <standard_type>  (391) 
IC50

>  <target_chembl_id>  (391) 
CHEMBL205

>  <data_validity_comment>  (391) 
None

>  <published_value>  (391) 
84.1

>  <document_year>  (391) 
2010

>  <target_pref_name>  (391) 
Carbonic anhydrase II

>  <assay_chembl_id>  (391) 
CHEMBL1106608

>  <standard_relation>  (391) 
=

>  <assay_description>  (391) 
Inhibition of carbonic anhydrase 2

>  <published_relation>  (391) 
=

>  <standard_value>  (391) 
84.1

>  <qudt_units>  (391) 
http://www.openphacts.org/units/Nanomolar

>  <target_tax_id>  (391) 
9606

>  <bao_label>  (391) 
single protein format

>  <published_units>  (391) 
nM

>  <pchembl_value>  (391) 
7.08

>  <published_type>  (391) 
IC50

>  <activity_comment>  (391) 
None

$$$$

     RDKit          

 27 29  0  0  0  0  0  0  0  0999 V2000
    0.0000    0.0000    0.0000 N   0  0  0  0  0  0  0  0  0  0  0  0
    0.0000    0.0000    0.0000 S   0  0  0  0  0  0  0  0  0  0  0  0
    0.0000    0.0000    0.0000 O   0  0  0  0  0  0  0  0  0  0  0  0
    0.0000    0.0000    0.0000 O   0  0  0  0  0  0  0  0  0  0  0  0
    0.0000    0.0000    0.0000 C   0  0  0  0  0  0  0  0  0  0  0  0
    0.0000    0.0000    0.0000 C   0  0  0  0  0  0  0  0  0  0  0  0
    0.0000    0.0000    0.0000 C   0  0  0  0  0  0  0  0  0  0  0  0
    0.0000    0.0000    0.0000 C   0  0  0  0  0  0  0  0  0  0  0  0
    0.0000    0.0000    0.0000 S   0  0  0  0  0  0  0  0  0  0  0  0
    0.0000    0.0000    0.0000 C   0  0  0  0  0  0  0  0  0  0  0  0
    0.0000    0.0000    0.0000 C   0  0  0  0  0  0  0  0  0  0  0  0
    0.0000    0.0000    0.0000 C   0  0  0  0  0  0  0  0  0  0  0  0
    0.0000    0.0000    0.0000 C   0  0  0  0  0  0  0  0  0  0  0  0
    0.0000    0.0000    0.0000 C   0  0  0  0  0  0  0  0  0  0  0  0
    0.0000    0.0000    0.0000 C   0  0  0  0  0  0  0  0  0  0  0  0
    0.0000    0.0000    0.0000 C   0  0  0  0  0  0  0  0  0  0  0  0
    0.0000    0.0000    0.0000 C   0  0  0  0  0  0  0  0  0  0  0  0
    0.0000    0.0000    0.0000 C   0  0  0  0  0  0  0  0  0  0  0  0
    0.0000    0.0000    0.0000 O   0  0  0  0  0  0  0  0  0  0  0  0
    0.0000    0.0000    0.0000 N   0  0  0  0  0  0  0  0  0  0  0  0
    0.0000    0.0000    0.0000 C   0  0  0  0  0  0  0  0  0  0  0  0
    0.0000    0.0000    0.0000 C   0  0  0  0  0  0  0  0  0  0  0  0
    0.0000    0.0000    0.0000 C   0  0  0  0  0  0  0  0  0  0  0  0
    0.0000    0.0000    0.0000 C   0  0  0  0  0  0  0  0  0  0  0  0
    0.0000    0.0000    0.0000 C   0  0  0  0  0  0  0  0  0  0  0  0
    0.0000    0.0000    0.0000 C   0  0  0  0  0  0  0  0  0  0  0  0
    0.0000    0.0000    0.0000 N   0  0  0  0  0  0  0  0  0  0  0  0
  1  2  1  0
  2  3  2  0
  2  4  2  0
  2  5  1  0
  5  6  2  0
  6  7  1  0
  7  8  2  0
  8  9  1  0
  9 10  1  0
 10 11  2  0
 11 12  1  0
 12 13  2  0
 13 14  1  0
 14 15  2  0
  8 16  1  0
 16 17  2  0
 16 18  1  0
 18 19  2  0
 18 20  1  0
 20 21  1  0
 21 22  1  0
 22 23  2  0
 23 24  1  0
 24 25  2  0
 25 26  1  0
 26 27  2  0
 17  5  1  0
 15 10  1  0
 27 22  1  0
M  END
>  <pIC50>  (392) 
7.17

>  <ChEMBL_ID>  (392) 
CHEMBL1096820

>  <document_journal>  (392) 
Bioorg. Med. Chem.

>  <bao_endpoint>  (392) 
BAO_0000190

>  <potential_duplicate>  (392) 
False

>  <uo_units>  (392) 
UO_0000065

>  <canonical_smiles>  (392) 
NS(=O)(=O)c1ccc(Sc2ccccc2)c(c1)C(=O)NCc3ccccn3

>  <parent_molecule_chembl_id>  (392) 
CHEMBL1096820

>  <assay_type>  (392) 
B

>  <src_id>  (392) 
1

>  <ligand_efficiency>  (392) 
{u'le': u'0.36', u'bei': u'17.95', u'sei': u'5.28', u'lle': u'4.66'}

>  <standard_flag>  (392) 
True

>  <molecule_chembl_id>  (392) 
CHEMBL1096820

>  <target_organism>  (392) 
Homo sapiens

>  <standard_units>  (392) 
nM

>  <record_id>  (392) 
909647

>  <document_chembl_id>  (392) 
CHEMBL1157929

>  <bao_format>  (392) 
BAO_0000357

>  <data_validity_description>  (392) 
None

>  <activity_id>  (392) 
3294838

>  <standard_type>  (392) 
IC50

>  <target_chembl_id>  (392) 
CHEMBL205

>  <data_validity_comment>  (392) 
None

>  <published_value>  (392) 
67.6

>  <document_year>  (392) 
2010

>  <target_pref_name>  (392) 
Carbonic anhydrase II

>  <assay_chembl_id>  (392) 
CHEMBL1106608

>  <standard_relation>  (392) 
=

>  <assay_description>  (392) 
Inhibition of carbonic anhydrase 2

>  <published_relation>  (392) 
=

>  <standard_value>  (392) 
67.6

>  <qudt_units>  (392) 
http://www.openphacts.org/units/Nanomolar

>  <target_tax_id>  (392) 
9606

>  <bao_label>  (392) 
single protein format

>  <published_units>  (392) 
nM

>  <pchembl_value>  (392) 
7.17

>  <published_type>  (392) 
IC50

>  <activity_comment>  (392) 
None

$$$$

     RDKit          

 26 27  0  0  0  0  0  0  0  0999 V2000
    0.0000    0.0000    0.0000 C   0  0  0  0  0  0  0  0  0  0  0  0
    0.0000    0.0000    0.0000 O   0  0  0  0  0  0  0  0  0  0  0  0
    0.0000    0.0000    0.0000 C   0  0  0  0  0  0  0  0  0  0  0  0
    0.0000    0.0000    0.0000 C   0  0  0  0  0  0  0  0  0  0  0  0
    0.0000    0.0000    0.0000 N   0  0  0  0  0  0  0  0  0  0  0  0
    0.0000    0.0000    0.0000 C   0  0  0  0  0  0  0  0  0  0  0  0
    0.0000    0.0000    0.0000 O   0  0  0  0  0  0  0  0  0  0  0  0
    0.0000    0.0000    0.0000 C   0  0  0  0  0  0  0  0  0  0  0  0
    0.0000    0.0000    0.0000 C   0  0  0  0  0  0  0  0  0  0  0  0
    0.0000    0.0000    0.0000 C   0  0  0  0  0  0  0  0  0  0  0  0
    0.0000    0.0000    0.0000 C   0  0  0  0  0  0  0  0  0  0  0  0
    0.0000    0.0000    0.0000 C   0  0  0  0  0  0  0  0  0  0  0  0
    0.0000    0.0000    0.0000 C   0  0  0  0  0  0  0  0  0  0  0  0
    0.0000    0.0000    0.0000 S   0  0  0  0  0  0  0  0  0  0  0  0
    0.0000    0.0000    0.0000 C   0  0  0  0  0  0  0  0  0  0  0  0
    0.0000    0.0000    0.0000 C   0  0  0  0  0  0  0  0  0  0  0  0
    0.0000    0.0000    0.0000 C   0  0  0  0  0  0  0  0  0  0  0  0
    0.0000    0.0000    0.0000 C   0  0  0  0  0  0  0  0  0  0  0  0
    0.0000    0.0000    0.0000 C   0  0  0  0  0  0  0  0  0  0  0  0
    0.0000    0.0000    0.0000 C   0  0  0  0  0  0  0  0  0  0  0  0
    0.0000    0.0000    0.0000 C   0  0  0  0  0  0  0  0  0  0  0  0
    0.0000    0.0000    0.0000 C   0  0  0  0  0  0  0  0  0  0  0  0
    0.0000    0.0000    0.0000 S   0  0  0  0  0  0  0  0  0  0  0  0
    0.0000    0.0000    0.0000 O   0  0  0  0  0  0  0  0  0  0  0  0
    0.0000    0.0000    0.0000 O   0  0  0  0  0  0  0  0  0  0  0  0
    0.0000    0.0000    0.0000 N   0  0  0  0  0  0  0  0  0  0  0  0
  1  2  1  0
  2  3  1  0
  3  4  1  0
  4  5  1  0
  5  6  1  0
  6  7  2  0
  6  8  1  0
  8  9  2  0
  9 10  1  0
 10 11  2  0
 11 12  1  0
 12 13  2  0
 13 14  1  0
 14 15  1  0
 15 16  1  0
 16 17  1  0
 17 18  2  0
 18 19  1  0
 19 20  2  0
 20 21  1  0
 21 22  2  0
 10 23  1  0
 23 24  2  0
 23 25  2  0
 23 26  1  0
 13  8  1  0
 22 17  1  0
M  END
>  <pIC50>  (393) 
7.7

>  <ChEMBL_ID>  (393) 
CHEMBL1096821

>  <document_journal>  (393) 
Bioorg. Med. Chem.

>  <bao_endpoint>  (393) 
BAO_0000190

>  <potential_duplicate>  (393) 
False

>  <uo_units>  (393) 
UO_0000065

>  <canonical_smiles>  (393) 
COCCNC(=O)c1cc(ccc1SCCc2ccccc2)S(=O)(=O)N

>  <parent_molecule_chembl_id>  (393) 
CHEMBL1096821

>  <assay_type>  (393) 
B

>  <src_id>  (393) 
1

>  <ligand_efficiency>  (393) 
{u'le': u'0.4', u'bei': u'19.5', u'sei': u'5.82', u'lle': u'5.63'}

>  <standard_flag>  (393) 
True

>  <molecule_chembl_id>  (393) 
CHEMBL1096821

>  <target_organism>  (393) 
Homo sapiens

>  <standard_units>  (393) 
nM

>  <record_id>  (393) 
909648

>  <document_chembl_id>  (393) 
CHEMBL1157929

>  <bao_format>  (393) 
BAO_0000357

>  <data_validity_description>  (393) 
None

>  <activity_id>  (393) 
3294839

>  <standard_type>  (393) 
IC50

>  <target_chembl_id>  (393) 
CHEMBL205

>  <data_validity_comment>  (393) 
None

>  <published_value>  (393) 
20.2

>  <document_year>  (393) 
2010

>  <target_pref_name>  (393) 
Carbonic anhydrase II

>  <assay_chembl_id>  (393) 
CHEMBL1106608

>  <standard_relation>  (393) 
=

>  <assay_description>  (393) 
Inhibition of carbonic anhydrase 2

>  <published_relation>  (393) 
=

>  <standard_value>  (393) 
20.2

>  <qudt_units>  (393) 
http://www.openphacts.org/units/Nanomolar

>  <target_tax_id>  (393) 
9606

>  <bao_label>  (393) 
single protein format

>  <published_units>  (393) 
nM

>  <pchembl_value>  (393) 
7.7

>  <published_type>  (393) 
IC50

>  <activity_comment>  (393) 
None

$$$$

     RDKit          

 21 21  0  0  0  0  0  0  0  0999 V2000
    0.0000    0.0000    0.0000 C   0  0  0  0  0  0  0  0  0  0  0  0
    0.0000    0.0000    0.0000 C   0  0  0  0  0  0  0  0  0  0  0  0
    0.0000    0.0000    0.0000 C   0  0  0  0  0  0  0  0  0  0  0  0
    0.0000    0.0000    0.0000 C   0  0  0  0  0  0  0  0  0  0  0  0
    0.0000    0.0000    0.0000 N   0  0  0  0  0  0  0  0  0  0  0  0
    0.0000    0.0000    0.0000 C   0  0  0  0  0  0  0  0  0  0  0  0
    0.0000    0.0000    0.0000 O   0  0  0  0  0  0  0  0  0  0  0  0
    0.0000    0.0000    0.0000 C   0  0  0  0  0  0  0  0  0  0  0  0
    0.0000    0.0000    0.0000 C   0  0  0  0  0  0  0  0  0  0  0  0
    0.0000    0.0000    0.0000 C   0  0  0  0  0  0  0  0  0  0  0  0
    0.0000    0.0000    0.0000 C   0  0  0  0  0  0  0  0  0  0  0  0
    0.0000    0.0000    0.0000 C   0  0  0  0  0  0  0  0  0  0  0  0
    0.0000    0.0000    0.0000 C   0  0  0  0  0  0  0  0  0  0  0  0
    0.0000    0.0000    0.0000 S   0  0  0  0  0  0  0  0  0  0  0  0
    0.0000    0.0000    0.0000 C   0  0  0  0  0  0  0  0  0  0  0  0
    0.0000    0.0000    0.0000 C   0  0  0  0  0  0  0  0  0  0  0  0
    0.0000    0.0000    0.0000 C   0  0  0  0  0  0  0  0  0  0  0  0
    0.0000    0.0000    0.0000 S   0  0  0  0  0  0  0  0  0  0  0  0
    0.0000    0.0000    0.0000 O   0  0  0  0  0  0  0  0  0  0  0  0
    0.0000    0.0000    0.0000 O   0  0  0  0  0  0  0  0  0  0  0  0
    0.0000    0.0000    0.0000 N   0  0  0  0  0  0  0  0  0  0  0  0
  1  2  1  0
  2  3  1  0
  2  4  1  0
  4  5  1  0
  5  6  1  0
  6  7  2  0
  6  8  1  0
  8  9  2  0
  9 10  1  0
 10 11  2  0
 11 12  1  0
 12 13  2  0
 13 14  1  0
 14 15  1  0
 15 16  1  0
 15 17  1  0
 10 18  1  0
 18 19  2  0
 18 20  2  0
 18 21  1  0
 13  8  1  0
M  END
>  <pIC50>  (394) 
7.67

>  <ChEMBL_ID>  (394) 
CHEMBL1096822

>  <document_journal>  (394) 
Bioorg. Med. Chem.

>  <bao_endpoint>  (394) 
BAO_0000190

>  <potential_duplicate>  (394) 
False

>  <uo_units>  (394) 
UO_0000065

>  <canonical_smiles>  (394) 
CC(C)CNC(=O)c1cc(ccc1SC(C)C)S(=O)(=O)N

>  <parent_molecule_chembl_id>  (394) 
CHEMBL1096822

>  <assay_type>  (394) 
B

>  <src_id>  (394) 
1

>  <ligand_efficiency>  (394) 
{u'le': u'0.5', u'bei': u'23.2', u'sei': u'6.24', u'lle': u'5.47'}

>  <standard_flag>  (394) 
True

>  <molecule_chembl_id>  (394) 
CHEMBL1096822

>  <target_organism>  (394) 
Homo sapiens

>  <standard_units>  (394) 
nM

>  <record_id>  (394) 
909649

>  <document_chembl_id>  (394) 
CHEMBL1157929

>  <bao_format>  (394) 
BAO_0000357

>  <data_validity_description>  (394) 
None

>  <activity_id>  (394) 
3294840

>  <standard_type>  (394) 
IC50

>  <target_chembl_id>  (394) 
CHEMBL205

>  <data_validity_comment>  (394) 
None

>  <published_value>  (394) 
21.5

>  <document_year>  (394) 
2010

>  <target_pref_name>  (394) 
Carbonic anhydrase II

>  <assay_chembl_id>  (394) 
CHEMBL1106608

>  <standard_relation>  (394) 
=

>  <assay_description>  (394) 
Inhibition of carbonic anhydrase 2

>  <published_relation>  (394) 
=

>  <standard_value>  (394) 
21.5

>  <qudt_units>  (394) 
http://www.openphacts.org/units/Nanomolar

>  <target_tax_id>  (394) 
9606

>  <bao_label>  (394) 
single protein format

>  <published_units>  (394) 
nM

>  <pchembl_value>  (394) 
7.67

>  <published_type>  (394) 
IC50

>  <activity_comment>  (394) 
None

$$$$

     RDKit          

 21 22  0  0  0  0  0  0  0  0999 V2000
    0.0000    0.0000    0.0000 C   0  0  0  0  0  0  0  0  0  0  0  0
    0.0000    0.0000    0.0000 C   0  0  0  0  0  0  0  0  0  0  0  0
    0.0000    0.0000    0.0000 N   0  0  0  0  0  0  0  0  0  0  0  0
    0.0000    0.0000    0.0000 C   0  0  0  0  0  0  0  0  0  0  0  0
    0.0000    0.0000    0.0000 O   0  0  0  0  0  0  0  0  0  0  0  0
    0.0000    0.0000    0.0000 C   0  0  0  0  0  0  0  0  0  0  0  0
    0.0000    0.0000    0.0000 C   0  0  0  0  0  0  0  0  0  0  0  0
    0.0000    0.0000    0.0000 C   0  0  0  0  0  0  0  0  0  0  0  0
    0.0000    0.0000    0.0000 C   0  0  0  0  0  0  0  0  0  0  0  0
    0.0000    0.0000    0.0000 C   0  0  0  0  0  0  0  0  0  0  0  0
    0.0000    0.0000    0.0000 C   0  0  0  0  0  0  0  0  0  0  0  0
    0.0000    0.0000    0.0000 S   0  0  0  0  0  0  0  0  0  0  0  0
    0.0000    0.0000    0.0000 C   0  0  0  0  0  0  0  0  0  0  0  0
    0.0000    0.0000    0.0000 C   0  0  0  0  0  0  0  0  0  0  0  0
    0.0000    0.0000    0.0000 C   0  0  0  0  0  0  0  0  0  0  0  0
    0.0000    0.0000    0.0000 C   0  0  0  0  0  0  0  0  0  0  0  0
    0.0000    0.0000    0.0000 C   0  0  0  0  0  0  0  0  0  0  0  0
    0.0000    0.0000    0.0000 S   0  0  0  0  0  0  0  0  0  0  0  0
    0.0000    0.0000    0.0000 O   0  0  0  0  0  0  0  0  0  0  0  0
    0.0000    0.0000    0.0000 O   0  0  0  0  0  0  0  0  0  0  0  0
    0.0000    0.0000    0.0000 N   0  0  0  0  0  0  0  0  0  0  0  0
  1  2  1  0
  2  3  1  0
  3  4  1  0
  4  5  2  0
  4  6  1  0
  6  7  2  0
  7  8  1  0
  8  9  2  0
  9 10  1  0
 10 11  2  0
 11 12  1  0
 12 13  1  0
 13 14  1  0
 14 15  1  0
 15 16  1  0
 16 17  1  0
  8 18  1  0
 18 19  2  0
 18 20  2  0
 18 21  1  0
 11  6  1  0
 17 13  1  0
M  END
>  <pIC50>  (395) 
7.78

>  <ChEMBL_ID>  (395) 
CHEMBL1096823

>  <document_journal>  (395) 
Bioorg. Med. Chem.

>  <bao_endpoint>  (395) 
BAO_0000190

>  <potential_duplicate>  (395) 
False

>  <uo_units>  (395) 
UO_0000065

>  <canonical_smiles>  (395) 
CCNC(=O)c1cc(ccc1SC2CCCC2)S(=O)(=O)N

>  <parent_molecule_chembl_id>  (395) 
CHEMBL1096823

>  <assay_type>  (395) 
B

>  <src_id>  (395) 
1

>  <ligand_efficiency>  (395) 
{u'le': u'0.51', u'bei': u'23.69', u'sei': u'6.33', u'lle': u'5.74'}

>  <standard_flag>  (395) 
True

>  <molecule_chembl_id>  (395) 
CHEMBL1096823

>  <target_organism>  (395) 
Homo sapiens

>  <standard_units>  (395) 
nM

>  <record_id>  (395) 
909650

>  <document_chembl_id>  (395) 
CHEMBL1157929

>  <bao_format>  (395) 
BAO_0000357

>  <data_validity_description>  (395) 
None

>  <activity_id>  (395) 
3294841

>  <standard_type>  (395) 
IC50

>  <target_chembl_id>  (395) 
CHEMBL205

>  <data_validity_comment>  (395) 
None

>  <published_value>  (395) 
16.5

>  <document_year>  (395) 
2010

>  <target_pref_name>  (395) 
Carbonic anhydrase II

>  <assay_chembl_id>  (395) 
CHEMBL1106608

>  <standard_relation>  (395) 
=

>  <assay_description>  (395) 
Inhibition of carbonic anhydrase 2

>  <published_relation>  (395) 
=

>  <standard_value>  (395) 
16.5

>  <qudt_units>  (395) 
http://www.openphacts.org/units/Nanomolar

>  <target_tax_id>  (395) 
9606

>  <bao_label>  (395) 
single protein format

>  <published_units>  (395) 
nM

>  <pchembl_value>  (395) 
7.78

>  <published_type>  (395) 
IC50

>  <activity_comment>  (395) 
None

$$$$

     RDKit          

 22 23  0  0  0  0  0  0  0  0999 V2000
    0.0000    0.0000    0.0000 C   0  0  0  0  0  0  0  0  0  0  0  0
    0.0000    0.0000    0.0000 C   0  0  0  0  0  0  0  0  0  0  0  0
    0.0000    0.0000    0.0000 N   0  0  0  0  0  0  0  0  0  0  0  0
    0.0000    0.0000    0.0000 C   0  0  0  0  0  0  0  0  0  0  0  0
    0.0000    0.0000    0.0000 O   0  0  0  0  0  0  0  0  0  0  0  0
    0.0000    0.0000    0.0000 C   0  0  0  0  0  0  0  0  0  0  0  0
    0.0000    0.0000    0.0000 C   0  0  0  0  0  0  0  0  0  0  0  0
    0.0000    0.0000    0.0000 C   0  0  0  0  0  0  0  0  0  0  0  0
    0.0000    0.0000    0.0000 C   0  0  0  0  0  0  0  0  0  0  0  0
    0.0000    0.0000    0.0000 N   0  0  0  0  0  0  0  0  0  0  0  0
    0.0000    0.0000    0.0000 C   0  0  0  0  0  0  0  0  0  0  0  0
    0.0000    0.0000    0.0000 S   0  0  0  0  0  0  0  0  0  0  0  0
    0.0000    0.0000    0.0000 C   0  0  0  0  0  0  0  0  0  0  0  0
    0.0000    0.0000    0.0000 C   0  0  0  0  0  0  0  0  0  0  0  0
    0.0000    0.0000    0.0000 C   0  0  0  0  0  0  0  0  0  0  0  0
    0.0000    0.0000    0.0000 C   0  0  0  0  0  0  0  0  0  0  0  0
    0.0000    0.0000    0.0000 C   0  0  0  0  0  0  0  0  0  0  0  0
    0.0000    0.0000    0.0000 C   0  0  0  0  0  0  0  0  0  0  0  0
    0.0000    0.0000    0.0000 S   0  0  0  0  0  0  0  0  0  0  0  0
    0.0000    0.0000    0.0000 O   0  0  0  0  0  0  0  0  0  0  0  0
    0.0000    0.0000    0.0000 O   0  0  0  0  0  0  0  0  0  0  0  0
    0.0000    0.0000    0.0000 N   0  0  0  0  0  0  0  0  0  0  0  0
  1  2  1  0
  2  3  1  0
  3  4  1  0
  4  5  2  0
  4  6  1  0
  6  7  2  0
  7  8  1  0
  8  9  2  0
  9 10  1  0
 10 11  2  0
 11 12  1  0
 12 13  1  0
 13 14  2  0
 14 15  1  0
 15 16  2  0
 16 17  1  0
 17 18  2  0
  8 19  1  0
 19 20  2  0
 19 21  2  0
 19 22  1  0
 11  6  1  0
 18 13  1  0
M  END
>  <pIC50>  (396) 
7.7

>  <ChEMBL_ID>  (396) 
CHEMBL1086703

>  <document_journal>  (396) 
Bioorg. Med. Chem.

>  <bao_endpoint>  (396) 
BAO_0000190

>  <potential_duplicate>  (396) 
False

>  <uo_units>  (396) 
UO_0000065

>  <canonical_smiles>  (396) 
CCNC(=O)c1cc(cnc1Sc2ccccc2)S(=O)(=O)N

>  <parent_molecule_chembl_id>  (396) 
CHEMBL1086703

>  <assay_type>  (396) 
B

>  <src_id>  (396) 
1

>  <ligand_efficiency>  (396) 
{u'le': u'0.48', u'bei': u'22.82', u'sei': u'5.67', u'lle': u'6.1'}

>  <standard_flag>  (396) 
True

>  <molecule_chembl_id>  (396) 
CHEMBL1086703

>  <target_organism>  (396) 
Homo sapiens

>  <standard_units>  (396) 
nM

>  <record_id>  (396) 
909652

>  <document_chembl_id>  (396) 
CHEMBL1157929

>  <bao_format>  (396) 
BAO_0000357

>  <data_validity_description>  (396) 
None

>  <activity_id>  (396) 
3295918

>  <standard_type>  (396) 
IC50

>  <target_chembl_id>  (396) 
CHEMBL205

>  <data_validity_comment>  (396) 
None

>  <published_value>  (396) 
20

>  <document_year>  (396) 
2010

>  <target_pref_name>  (396) 
Carbonic anhydrase II

>  <assay_chembl_id>  (396) 
CHEMBL1106608

>  <standard_relation>  (396) 
=

>  <assay_description>  (396) 
Inhibition of carbonic anhydrase 2

>  <published_relation>  (396) 
=

>  <standard_value>  (396) 
20

>  <qudt_units>  (396) 
http://www.openphacts.org/units/Nanomolar

>  <target_tax_id>  (396) 
9606

>  <bao_label>  (396) 
single protein format

>  <published_units>  (396) 
nM

>  <pchembl_value>  (396) 
7.7

>  <published_type>  (396) 
IC50

>  <activity_comment>  (396) 
None

$$$$

     RDKit          

 25 26  0  0  0  0  0  0  0  0999 V2000
    0.0000    0.0000    0.0000 C   0  0  0  0  0  0  0  0  0  0  0  0
    0.0000    0.0000    0.0000 N   0  0  0  0  0  0  0  0  0  0  0  0
    0.0000    0.0000    0.0000 C   0  0  0  0  0  0  0  0  0  0  0  0
    0.0000    0.0000    0.0000 C   0  0  0  0  0  0  0  0  0  0  0  0
    0.0000    0.0000    0.0000 C   0  0  0  0  0  0  0  0  0  0  0  0
    0.0000    0.0000    0.0000 N   0  0  0  0  0  0  0  0  0  0  0  0
    0.0000    0.0000    0.0000 C   0  0  0  0  0  0  0  0  0  0  0  0
    0.0000    0.0000    0.0000 O   0  0  0  0  0  0  0  0  0  0  0  0
    0.0000    0.0000    0.0000 C   0  0  0  0  0  0  0  0  0  0  0  0
    0.0000    0.0000    0.0000 C   0  0  0  0  0  0  0  0  0  0  0  0
    0.0000    0.0000    0.0000 C   0  0  0  0  0  0  0  0  0  0  0  0
    0.0000    0.0000    0.0000 C   0  0  0  0  0  0  0  0  0  0  0  0
    0.0000    0.0000    0.0000 N   0  0  0  0  0  0  0  0  0  0  0  0
    0.0000    0.0000    0.0000 C   0  0  0  0  0  0  0  0  0  0  0  0
    0.0000    0.0000    0.0000 S   0  0  0  0  0  0  0  0  0  0  0  0
    0.0000    0.0000    0.0000 C   0  0  0  0  0  0  0  0  0  0  0  0
    0.0000    0.0000    0.0000 C   0  0  0  0  0  0  0  0  0  0  0  0
    0.0000    0.0000    0.0000 C   0  0  0  0  0  0  0  0  0  0  0  0
    0.0000    0.0000    0.0000 C   0  0  0  0  0  0  0  0  0  0  0  0
    0.0000    0.0000    0.0000 C   0  0  0  0  0  0  0  0  0  0  0  0
    0.0000    0.0000    0.0000 C   0  0  0  0  0  0  0  0  0  0  0  0
    0.0000    0.0000    0.0000 S   0  0  0  0  0  0  0  0  0  0  0  0
    0.0000    0.0000    0.0000 O   0  0  0  0  0  0  0  0  0  0  0  0
    0.0000    0.0000    0.0000 O   0  0  0  0  0  0  0  0  0  0  0  0
    0.0000    0.0000    0.0000 N   0  0  0  0  0  0  0  0  0  0  0  0
  1  2  1  0
  2  3  1  0
  2  4  1  0
  4  5  1  0
  5  6  1  0
  6  7  1  0
  7  8  2  0
  7  9  1  0
  9 10  2  0
 10 11  1  0
 11 12  2  0
 12 13  1  0
 13 14  2  0
 14 15  1  0
 15 16  1  0
 16 17  2  0
 17 18  1  0
 18 19  2  0
 19 20  1  0
 20 21  2  0
 11 22  1  0
 22 23  2  0
 22 24  2  0
 22 25  1  0
 14  9  1  0
 21 16  1  0
M  END
>  <pIC50>  (397) 
5.57

>  <ChEMBL_ID>  (397) 
CHEMBL1098816

>  <document_journal>  (397) 
Bioorg. Med. Chem.

>  <bao_endpoint>  (397) 
BAO_0000190

>  <potential_duplicate>  (397) 
False

>  <uo_units>  (397) 
UO_0000065

>  <canonical_smiles>  (397) 
CN(C)CCNC(=O)c1cc(cnc1Sc2ccccc2)S(=O)(=O)N

>  <parent_molecule_chembl_id>  (397) 
CHEMBL1098816

>  <assay_type>  (397) 
B

>  <src_id>  (397) 
1

>  <ligand_efficiency>  (397) 
{u'le': u'0.3', u'bei': u'14.63', u'sei': u'4', u'lle': u'4.18'}

>  <standard_flag>  (397) 
True

>  <molecule_chembl_id>  (397) 
CHEMBL1098816

>  <target_organism>  (397) 
Homo sapiens

>  <standard_units>  (397) 
nM

>  <record_id>  (397) 
909730

>  <document_chembl_id>  (397) 
CHEMBL1157929

>  <bao_format>  (397) 
BAO_0000357

>  <data_validity_description>  (397) 
None

>  <activity_id>  (397) 
3295919

>  <standard_type>  (397) 
IC50

>  <target_chembl_id>  (397) 
CHEMBL205

>  <data_validity_comment>  (397) 
None

>  <published_value>  (397) 
2710

>  <document_year>  (397) 
2010

>  <target_pref_name>  (397) 
Carbonic anhydrase II

>  <assay_chembl_id>  (397) 
CHEMBL1106608

>  <standard_relation>  (397) 
=

>  <assay_description>  (397) 
Inhibition of carbonic anhydrase 2

>  <published_relation>  (397) 
=

>  <standard_value>  (397) 
2710

>  <qudt_units>  (397) 
http://www.openphacts.org/units/Nanomolar

>  <target_tax_id>  (397) 
9606

>  <bao_label>  (397) 
single protein format

>  <published_units>  (397) 
nM

>  <pchembl_value>  (397) 
5.57

>  <published_type>  (397) 
IC50

>  <activity_comment>  (397) 
None

$$$$

     RDKit          

 24 25  0  0  0  0  0  0  0  0999 V2000
    0.0000    0.0000    0.0000 C   0  0  0  0  0  0  0  0  0  0  0  0
    0.0000    0.0000    0.0000 O   0  0  0  0  0  0  0  0  0  0  0  0
    0.0000    0.0000    0.0000 C   0  0  0  0  0  0  0  0  0  0  0  0
    0.0000    0.0000    0.0000 C   0  0  0  0  0  0  0  0  0  0  0  0
    0.0000    0.0000    0.0000 N   0  0  0  0  0  0  0  0  0  0  0  0
    0.0000    0.0000    0.0000 C   0  0  0  0  0  0  0  0  0  0  0  0
    0.0000    0.0000    0.0000 O   0  0  0  0  0  0  0  0  0  0  0  0
    0.0000    0.0000    0.0000 C   0  0  0  0  0  0  0  0  0  0  0  0
    0.0000    0.0000    0.0000 C   0  0  0  0  0  0  0  0  0  0  0  0
    0.0000    0.0000    0.0000 C   0  0  0  0  0  0  0  0  0  0  0  0
    0.0000    0.0000    0.0000 C   0  0  0  0  0  0  0  0  0  0  0  0
    0.0000    0.0000    0.0000 N   0  0  0  0  0  0  0  0  0  0  0  0
    0.0000    0.0000    0.0000 C   0  0  0  0  0  0  0  0  0  0  0  0
    0.0000    0.0000    0.0000 S   0  0  0  0  0  0  0  0  0  0  0  0
    0.0000    0.0000    0.0000 C   0  0  0  0  0  0  0  0  0  0  0  0
    0.0000    0.0000    0.0000 C   0  0  0  0  0  0  0  0  0  0  0  0
    0.0000    0.0000    0.0000 C   0  0  0  0  0  0  0  0  0  0  0  0
    0.0000    0.0000    0.0000 C   0  0  0  0  0  0  0  0  0  0  0  0
    0.0000    0.0000    0.0000 C   0  0  0  0  0  0  0  0  0  0  0  0
    0.0000    0.0000    0.0000 C   0  0  0  0  0  0  0  0  0  0  0  0
    0.0000    0.0000    0.0000 S   0  0  0  0  0  0  0  0  0  0  0  0
    0.0000    0.0000    0.0000 O   0  0  0  0  0  0  0  0  0  0  0  0
    0.0000    0.0000    0.0000 O   0  0  0  0  0  0  0  0  0  0  0  0
    0.0000    0.0000    0.0000 N   0  0  0  0  0  0  0  0  0  0  0  0
  1  2  1  0
  2  3  1  0
  3  4  1  0
  4  5  1  0
  5  6  1  0
  6  7  2  0
  6  8  1  0
  8  9  2  0
  9 10  1  0
 10 11  2  0
 11 12  1  0
 12 13  2  0
 13 14  1  0
 14 15  1  0
 15 16  2  0
 16 17  1  0
 17 18  2  0
 18 19  1  0
 19 20  2  0
 10 21  1  0
 21 22  2  0
 21 23  2  0
 21 24  1  0
 13  8  1  0
 20 15  1  0
M  END
>  <pIC50>  (398) 
7.24

>  <ChEMBL_ID>  (398) 
CHEMBL1098817

>  <document_journal>  (398) 
Bioorg. Med. Chem.

>  <bao_endpoint>  (398) 
BAO_0000190

>  <potential_duplicate>  (398) 
False

>  <uo_units>  (398) 
UO_0000065

>  <canonical_smiles>  (398) 
COCCNC(=O)c1cc(cnc1Sc2ccccc2)S(=O)(=O)N

>  <parent_molecule_chembl_id>  (398) 
CHEMBL1098817

>  <assay_type>  (398) 
B

>  <src_id>  (398) 
1

>  <ligand_efficiency>  (398) 
{u'le': u'0.41', u'bei': u'19.71', u'sei': u'4.99', u'lle': u'6.12'}

>  <standard_flag>  (398) 
True

>  <molecule_chembl_id>  (398) 
CHEMBL1098817

>  <target_organism>  (398) 
Homo sapiens

>  <standard_units>  (398) 
nM

>  <record_id>  (398) 
909731

>  <document_chembl_id>  (398) 
CHEMBL1157929

>  <bao_format>  (398) 
BAO_0000357

>  <data_validity_description>  (398) 
None

>  <activity_id>  (398) 
3295920

>  <standard_type>  (398) 
IC50

>  <target_chembl_id>  (398) 
CHEMBL205

>  <data_validity_comment>  (398) 
None

>  <published_value>  (398) 
57.1

>  <document_year>  (398) 
2010

>  <target_pref_name>  (398) 
Carbonic anhydrase II

>  <assay_chembl_id>  (398) 
CHEMBL1106608

>  <standard_relation>  (398) 
=

>  <assay_description>  (398) 
Inhibition of carbonic anhydrase 2

>  <published_relation>  (398) 
=

>  <standard_value>  (398) 
57.1

>  <qudt_units>  (398) 
http://www.openphacts.org/units/Nanomolar

>  <target_tax_id>  (398) 
9606

>  <bao_label>  (398) 
single protein format

>  <published_units>  (398) 
nM

>  <pchembl_value>  (398) 
7.24

>  <published_type>  (398) 
IC50

>  <activity_comment>  (398) 
None

$$$$

     RDKit          

 25 26  0  0  0  0  0  0  0  0999 V2000
    0.0000    0.0000    0.0000 C   0  0  0  0  0  0  0  0  0  0  0  0
    0.0000    0.0000    0.0000 O   0  0  0  0  0  0  0  0  0  0  0  0
    0.0000    0.0000    0.0000 C   0  0  0  0  0  0  0  0  0  0  0  0
    0.0000    0.0000    0.0000 C   0  0  0  0  0  0  0  0  0  0  0  0
    0.0000    0.0000    0.0000 C   0  0  0  0  0  0  0  0  0  0  0  0
    0.0000    0.0000    0.0000 N   0  0  0  0  0  0  0  0  0  0  0  0
    0.0000    0.0000    0.0000 C   0  0  0  0  0  0  0  0  0  0  0  0
    0.0000    0.0000    0.0000 O   0  0  0  0  0  0  0  0  0  0  0  0
    0.0000    0.0000    0.0000 C   0  0  0  0  0  0  0  0  0  0  0  0
    0.0000    0.0000    0.0000 C   0  0  0  0  0  0  0  0  0  0  0  0
    0.0000    0.0000    0.0000 C   0  0  0  0  0  0  0  0  0  0  0  0
    0.0000    0.0000    0.0000 C   0  0  0  0  0  0  0  0  0  0  0  0
    0.0000    0.0000    0.0000 N   0  0  0  0  0  0  0  0  0  0  0  0
    0.0000    0.0000    0.0000 C   0  0  0  0  0  0  0  0  0  0  0  0
    0.0000    0.0000    0.0000 S   0  0  0  0  0  0  0  0  0  0  0  0
    0.0000    0.0000    0.0000 C   0  0  0  0  0  0  0  0  0  0  0  0
    0.0000    0.0000    0.0000 C   0  0  0  0  0  0  0  0  0  0  0  0
    0.0000    0.0000    0.0000 C   0  0  0  0  0  0  0  0  0  0  0  0
    0.0000    0.0000    0.0000 C   0  0  0  0  0  0  0  0  0  0  0  0
    0.0000    0.0000    0.0000 C   0  0  0  0  0  0  0  0  0  0  0  0
    0.0000    0.0000    0.0000 C   0  0  0  0  0  0  0  0  0  0  0  0
    0.0000    0.0000    0.0000 S   0  0  0  0  0  0  0  0  0  0  0  0
    0.0000    0.0000    0.0000 O   0  0  0  0  0  0  0  0  0  0  0  0
    0.0000    0.0000    0.0000 O   0  0  0  0  0  0  0  0  0  0  0  0
    0.0000    0.0000    0.0000 N   0  0  0  0  0  0  0  0  0  0  0  0
  1  2  1  0
  2  3  1  0
  3  4  1  0
  4  5  1  0
  5  6  1  0
  6  7  1  0
  7  8  2  0
  7  9  1  0
  9 10  2  0
 10 11  1  0
 11 12  2  0
 12 13  1  0
 13 14  2  0
 14 15  1  0
 15 16  1  0
 16 17  2  0
 17 18  1  0
 18 19  2  0
 19 20  1  0
 20 21  2  0
 11 22  1  0
 22 23  2  0
 22 24  2  0
 22 25  1  0
 14  9  1  0
 21 16  1  0
M  END
>  <pIC50>  (399) 
7.32

>  <ChEMBL_ID>  (399) 
CHEMBL1099124

>  <document_journal>  (399) 
Bioorg. Med. Chem.

>  <bao_endpoint>  (399) 
BAO_0000190

>  <potential_duplicate>  (399) 
False

>  <uo_units>  (399) 
UO_0000065

>  <canonical_smiles>  (399) 
COCCCNC(=O)c1cc(cnc1Sc2ccccc2)S(=O)(=O)N

>  <parent_molecule_chembl_id>  (399) 
CHEMBL1099124

>  <assay_type>  (399) 
B

>  <src_id>  (399) 
1

>  <ligand_efficiency>  (399) 
{u'le': u'0.4', u'bei': u'19.19', u'sei': u'5.05', u'lle': u'6.14'}

>  <standard_flag>  (399) 
True

>  <molecule_chembl_id>  (399) 
CHEMBL1099124

>  <target_organism>  (399) 
Homo sapiens

>  <standard_units>  (399) 
nM

>  <record_id>  (399) 
909732

>  <document_chembl_id>  (399) 
CHEMBL1157929

>  <bao_format>  (399) 
BAO_0000357

>  <data_validity_description>  (399) 
None

>  <activity_id>  (399) 
3295921

>  <standard_type>  (399) 
IC50

>  <target_chembl_id>  (399) 
CHEMBL205

>  <data_validity_comment>  (399) 
None

>  <published_value>  (399) 
48

>  <document_year>  (399) 
2010

>  <target_pref_name>  (399) 
Carbonic anhydrase II

>  <assay_chembl_id>  (399) 
CHEMBL1106608

>  <standard_relation>  (399) 
=

>  <assay_description>  (399) 
Inhibition of carbonic anhydrase 2

>  <published_relation>  (399) 
=

>  <standard_value>  (399) 
48

>  <qudt_units>  (399) 
http://www.openphacts.org/units/Nanomolar

>  <target_tax_id>  (399) 
9606

>  <bao_label>  (399) 
single protein format

>  <published_units>  (399) 
nM

>  <pchembl_value>  (399) 
7.32

>  <published_type>  (399) 
IC50

>  <activity_comment>  (399) 
None

$$$$

     RDKit          

 23 24  0  0  0  0  0  0  0  0999 V2000
    0.0000    0.0000    0.0000 C   0  0  0  0  0  0  0  0  0  0  0  0
    0.0000    0.0000    0.0000 C   0  0  0  0  0  0  0  0  0  0  0  0
    0.0000    0.0000    0.0000 C   0  0  0  0  0  0  0  0  0  0  0  0
    0.0000    0.0000    0.0000 N   0  0  0  0  0  0  0  0  0  0  0  0
    0.0000    0.0000    0.0000 C   0  0  0  0  0  0  0  0  0  0  0  0
    0.0000    0.0000    0.0000 O   0  0  0  0  0  0  0  0  0  0  0  0
    0.0000    0.0000    0.0000 C   0  0  0  0  0  0  0  0  0  0  0  0
    0.0000    0.0000    0.0000 C   0  0  0  0  0  0  0  0  0  0  0  0
    0.0000    0.0000    0.0000 C   0  0  0  0  0  0  0  0  0  0  0  0
    0.0000    0.0000    0.0000 C   0  0  0  0  0  0  0  0  0  0  0  0
    0.0000    0.0000    0.0000 N   0  0  0  0  0  0  0  0  0  0  0  0
    0.0000    0.0000    0.0000 C   0  0  0  0  0  0  0  0  0  0  0  0
    0.0000    0.0000    0.0000 S   0  0  0  0  0  0  0  0  0  0  0  0
    0.0000    0.0000    0.0000 C   0  0  0  0  0  0  0  0  0  0  0  0
    0.0000    0.0000    0.0000 C   0  0  0  0  0  0  0  0  0  0  0  0
    0.0000    0.0000    0.0000 C   0  0  0  0  0  0  0  0  0  0  0  0
    0.0000    0.0000    0.0000 C   0  0  0  0  0  0  0  0  0  0  0  0
    0.0000    0.0000    0.0000 C   0  0  0  0  0  0  0  0  0  0  0  0
    0.0000    0.0000    0.0000 C   0  0  0  0  0  0  0  0  0  0  0  0
    0.0000    0.0000    0.0000 S   0  0  0  0  0  0  0  0  0  0  0  0
    0.0000    0.0000    0.0000 O   0  0  0  0  0  0  0  0  0  0  0  0
    0.0000    0.0000    0.0000 O   0  0  0  0  0  0  0  0  0  0  0  0
    0.0000    0.0000    0.0000 N   0  0  0  0  0  0  0  0  0  0  0  0
  1  2  1  0
  2  3  1  0
  3  4  1  0
  4  5  1  0
  5  6  2  0
  5  7  1  0
  7  8  2  0
  8  9  1  0
  9 10  2  0
 10 11  1  0
 11 12  2  0
 12 13  1  0
 13 14  1  0
 14 15  2  0
 15 16  1  0
 16 17  2  0
 17 18  1  0
 18 19  2  0
  9 20  1  0
 20 21  2  0
 20 22  2  0
 20 23  1  0
 12  7  1  0
 19 14  1  0
M  END
>  <pIC50>  (400) 
7.57

>  <ChEMBL_ID>  (400) 
CHEMBL1099125

>  <document_journal>  (400) 
Bioorg. Med. Chem.

>  <bao_endpoint>  (400) 
BAO_0000190

>  <potential_duplicate>  (400) 
False

>  <uo_units>  (400) 
UO_0000065

>  <canonical_smiles>  (400) 
CCCNC(=O)c1cc(cnc1Sc2ccccc2)S(=O)(=O)N

>  <parent_molecule_chembl_id>  (400) 
CHEMBL1099125

>  <assay_type>  (400) 
B

>  <src_id>  (400) 
1

>  <ligand_efficiency>  (400) 
{u'le': u'0.45', u'bei': u'21.55', u'sei': u'5.58', u'lle': u'5.45'}

>  <standard_flag>  (400) 
True

>  <molecule_chembl_id>  (400) 
CHEMBL1099125

>  <target_organism>  (400) 
Homo sapiens

>  <standard_units>  (400) 
nM

>  <record_id>  (400) 
909733

>  <document_chembl_id>  (400) 
CHEMBL1157929

>  <bao_format>  (400) 
BAO_0000357

>  <data_validity_description>  (400) 
None

>  <activity_id>  (400) 
3295922

>  <standard_type>  (400) 
IC50

>  <target_chembl_id>  (400) 
CHEMBL205

>  <data_validity_comment>  (400) 
None

>  <published_value>  (400) 
26.7

>  <document_year>  (400) 
2010

>  <target_pref_name>  (400) 
Carbonic anhydrase II

>  <assay_chembl_id>  (400) 
CHEMBL1106608

>  <standard_relation>  (400) 
=

>  <assay_description>  (400) 
Inhibition of carbonic anhydrase 2

>  <published_relation>  (400) 
=

>  <standard_value>  (400) 
26.7

>  <qudt_units>  (400) 
http://www.openphacts.org/units/Nanomolar

>  <target_tax_id>  (400) 
9606

>  <bao_label>  (400) 
single protein format

>  <published_units>  (400) 
nM

>  <pchembl_value>  (400) 
7.57

>  <published_type>  (400) 
IC50

>  <activity_comment>  (400) 
None

$$$$

     RDKit          

 28 30  0  0  0  0  0  0  0  0999 V2000
    0.0000    0.0000    0.0000 N   0  0  0  0  0  0  0  0  0  0  0  0
    0.0000    0.0000    0.0000 S   0  0  0  0  0  0  0  0  0  0  0  0
    0.0000    0.0000    0.0000 O   0  0  0  0  0  0  0  0  0  0  0  0
    0.0000    0.0000    0.0000 O   0  0  0  0  0  0  0  0  0  0  0  0
    0.0000    0.0000    0.0000 C   0  0  0  0  0  0  0  0  0  0  0  0
    0.0000    0.0000    0.0000 C   0  0  0  0  0  0  0  0  0  0  0  0
    0.0000    0.0000    0.0000 N   0  0  0  0  0  0  0  0  0  0  0  0
    0.0000    0.0000    0.0000 C   0  0  0  0  0  0  0  0  0  0  0  0
    0.0000    0.0000    0.0000 S   0  0  0  0  0  0  0  0  0  0  0  0
    0.0000    0.0000    0.0000 C   0  0  0  0  0  0  0  0  0  0  0  0
    0.0000    0.0000    0.0000 C   0  0  0  0  0  0  0  0  0  0  0  0
    0.0000    0.0000    0.0000 C   0  0  0  0  0  0  0  0  0  0  0  0
    0.0000    0.0000    0.0000 C   0  0  0  0  0  0  0  0  0  0  0  0
    0.0000    0.0000    0.0000 C   0  0  0  0  0  0  0  0  0  0  0  0
    0.0000    0.0000    0.0000 C   0  0  0  0  0  0  0  0  0  0  0  0
    0.0000    0.0000    0.0000 C   0  0  0  0  0  0  0  0  0  0  0  0
    0.0000    0.0000    0.0000 C   0  0  0  0  0  0  0  0  0  0  0  0
    0.0000    0.0000    0.0000 C   0  0  0  0  0  0  0  0  0  0  0  0
    0.0000    0.0000    0.0000 O   0  0  0  0  0  0  0  0  0  0  0  0
    0.0000    0.0000    0.0000 N   0  0  0  0  0  0  0  0  0  0  0  0
    0.0000    0.0000    0.0000 C   0  0  0  0  0  0  0  0  0  0  0  0
    0.0000    0.0000    0.0000 C   0  0  0  0  0  0  0  0  0  0  0  0
    0.0000    0.0000    0.0000 C   0  0  0  0  0  0  0  0  0  0  0  0
    0.0000    0.0000    0.0000 C   0  0  0  0  0  0  0  0  0  0  0  0
    0.0000    0.0000    0.0000 C   0  0  0  0  0  0  0  0  0  0  0  0
    0.0000    0.0000    0.0000 C   0  0  0  0  0  0  0  0  0  0  0  0
    0.0000    0.0000    0.0000 C   0  0  0  0  0  0  0  0  0  0  0  0
    0.0000    0.0000    0.0000 C   0  0  0  0  0  0  0  0  0  0  0  0
  1  2  1  0
  2  3  2  0
  2  4  2  0
  2  5  1  0
  5  6  2  0
  6  7  1  0
  7  8  2  0
  8  9  1  0
  9 10  1  0
 10 11  2  0
 11 12  1  0
 12 13  2  0
 13 14  1  0
 14 15  2  0
  8 16  1  0
 16 17  2  0
 16 18  1  0
 18 19  2  0
 18 20  1  0
 20 21  1  0
 21 22  1  0
 22 23  1  0
 23 24  2  0
 24 25  1  0
 25 26  2  0
 26 27  1  0
 27 28  2  0
 17  5  1  0
 15 10  1  0
 28 23  1  0
M  END
>  <pIC50>  (401) 
7.58

>  <ChEMBL_ID>  (401) 
CHEMBL1094898

>  <document_journal>  (401) 
Bioorg. Med. Chem.

>  <bao_endpoint>  (401) 
BAO_0000190

>  <potential_duplicate>  (401) 
False

>  <uo_units>  (401) 
UO_0000065

>  <canonical_smiles>  (401) 
NS(=O)(=O)c1cnc(Sc2ccccc2)c(c1)C(=O)NCCc3ccccc3

>  <parent_molecule_chembl_id>  (401) 
CHEMBL1094898

>  <assay_type>  (401) 
B

>  <src_id>  (401) 
1

>  <ligand_efficiency>  (401) 
{u'le': u'0.37', u'bei': u'18.32', u'sei': u'5.58', u'lle': u'4.43'}

>  <standard_flag>  (401) 
True

>  <molecule_chembl_id>  (401) 
CHEMBL1094898

>  <target_organism>  (401) 
Homo sapiens

>  <standard_units>  (401) 
nM

>  <record_id>  (401) 
909734

>  <document_chembl_id>  (401) 
CHEMBL1157929

>  <bao_format>  (401) 
BAO_0000357

>  <data_validity_description>  (401) 
None

>  <activity_id>  (401) 
3295923

>  <standard_type>  (401) 
IC50

>  <target_chembl_id>  (401) 
CHEMBL205

>  <data_validity_comment>  (401) 
None

>  <published_value>  (401) 
26.6

>  <document_year>  (401) 
2010

>  <target_pref_name>  (401) 
Carbonic anhydrase II

>  <assay_chembl_id>  (401) 
CHEMBL1106608

>  <standard_relation>  (401) 
=

>  <assay_description>  (401) 
Inhibition of carbonic anhydrase 2

>  <published_relation>  (401) 
=

>  <standard_value>  (401) 
26.6

>  <qudt_units>  (401) 
http://www.openphacts.org/units/Nanomolar

>  <target_tax_id>  (401) 
9606

>  <bao_label>  (401) 
single protein format

>  <published_units>  (401) 
nM

>  <pchembl_value>  (401) 
7.58

>  <published_type>  (401) 
IC50

>  <activity_comment>  (401) 
None

$$$$

     RDKit          

 31 33  0  0  0  0  0  0  0  0999 V2000
    0.0000    0.0000    0.0000 N   0  0  0  0  0  0  0  0  0  0  0  0
    0.0000    0.0000    0.0000 S   0  0  0  0  0  0  0  0  0  0  0  0
    0.0000    0.0000    0.0000 O   0  0  0  0  0  0  0  0  0  0  0  0
    0.0000    0.0000    0.0000 O   0  0  0  0  0  0  0  0  0  0  0  0
    0.0000    0.0000    0.0000 C   0  0  0  0  0  0  0  0  0  0  0  0
    0.0000    0.0000    0.0000 C   0  0  0  0  0  0  0  0  0  0  0  0
    0.0000    0.0000    0.0000 N   0  0  0  0  0  0  0  0  0  0  0  0
    0.0000    0.0000    0.0000 C   0  0  0  0  0  0  0  0  0  0  0  0
    0.0000    0.0000    0.0000 S   0  0  0  0  0  0  0  0  0  0  0  0
    0.0000    0.0000    0.0000 C   0  0  0  0  0  0  0  0  0  0  0  0
    0.0000    0.0000    0.0000 C   0  0  0  0  0  0  0  0  0  0  0  0
    0.0000    0.0000    0.0000 F   0  0  0  0  0  0  0  0  0  0  0  0
    0.0000    0.0000    0.0000 C   0  0  0  0  0  0  0  0  0  0  0  0
    0.0000    0.0000    0.0000 F   0  0  0  0  0  0  0  0  0  0  0  0
    0.0000    0.0000    0.0000 C   0  0  0  0  0  0  0  0  0  0  0  0
    0.0000    0.0000    0.0000 C   0  0  0  0  0  0  0  0  0  0  0  0
    0.0000    0.0000    0.0000 F   0  0  0  0  0  0  0  0  0  0  0  0
    0.0000    0.0000    0.0000 C   0  0  0  0  0  0  0  0  0  0  0  0
    0.0000    0.0000    0.0000 F   0  0  0  0  0  0  0  0  0  0  0  0
    0.0000    0.0000    0.0000 C   0  0  0  0  0  0  0  0  0  0  0  0
    0.0000    0.0000    0.0000 C   0  0  0  0  0  0  0  0  0  0  0  0
    0.0000    0.0000    0.0000 C   0  0  0  0  0  0  0  0  0  0  0  0
    0.0000    0.0000    0.0000 O   0  0  0  0  0  0  0  0  0  0  0  0
    0.0000    0.0000    0.0000 N   0  0  0  0  0  0  0  0  0  0  0  0
    0.0000    0.0000    0.0000 C   0  0  0  0  0  0  0  0  0  0  0  0
    0.0000    0.0000    0.0000 C   0  0  0  0  0  0  0  0  0  0  0  0
    0.0000    0.0000    0.0000 C   0  0  0  0  0  0  0  0  0  0  0  0
    0.0000    0.0000    0.0000 C   0  0  0  0  0  0  0  0  0  0  0  0
    0.0000    0.0000    0.0000 C   0  0  0  0  0  0  0  0  0  0  0  0
    0.0000    0.0000    0.0000 C   0  0  0  0  0  0  0  0  0  0  0  0
    0.0000    0.0000    0.0000 N   0  0  0  0  0  0  0  0  0  0  0  0
  1  2  1  0
  2  3  2  0
  2  4  2  0
  2  5  1  0
  5  6  2  0
  6  7  1  0
  7  8  2  0
  8  9  1  0
  9 10  1  0
 10 11  2  0
 11 12  1  0
 11 13  1  0
 13 14  1  0
 13 15  2  0
 15 16  1  0
 16 17  1  0
 16 18  2  0
 18 19  1  0
  8 20  1  0
 20 21  2  0
 20 22  1  0
 22 23  2  0
 22 24  1  0
 24 25  1  0
 25 26  1  0
 26 27  2  0
 27 28  1  0
 28 29  2  0
 29 30  1  0
 30 31  2  0
 21  5  1  0
 18 10  1  0
 31 26  1  0
M  END
>  <pIC50>  (402) 
7.64

>  <ChEMBL_ID>  (402) 
CHEMBL1098839

>  <document_journal>  (402) 
Bioorg. Med. Chem.

>  <bao_endpoint>  (402) 
BAO_0000190

>  <potential_duplicate>  (402) 
False

>  <uo_units>  (402) 
UO_0000065

>  <canonical_smiles>  (402) 
NS(=O)(=O)c1cnc(Sc2c(F)c(F)cc(F)c2F)c(c1)C(=O)NCc3ccccn3

>  <parent_molecule_chembl_id>  (402) 
CHEMBL1098839

>  <assay_type>  (402) 
B

>  <src_id>  (402) 
1

>  <ligand_efficiency>  (402) 
{u'le': u'0.34', u'bei': u'16.16', u'sei': u'5.13', u'lle': u'4.91'}

>  <standard_flag>  (402) 
True

>  <molecule_chembl_id>  (402) 
CHEMBL1098839

>  <target_organism>  (402) 
Homo sapiens

>  <standard_units>  (402) 
nM

>  <record_id>  (402) 
909819

>  <document_chembl_id>  (402) 
CHEMBL1157929

>  <bao_format>  (402) 
BAO_0000357

>  <data_validity_description>  (402) 
None

>  <activity_id>  (402) 
3295924

>  <standard_type>  (402) 
IC50

>  <target_chembl_id>  (402) 
CHEMBL205

>  <data_validity_comment>  (402) 
None

>  <published_value>  (402) 
23.2

>  <document_year>  (402) 
2010

>  <target_pref_name>  (402) 
Carbonic anhydrase II

>  <assay_chembl_id>  (402) 
CHEMBL1106608

>  <standard_relation>  (402) 
=

>  <assay_description>  (402) 
Inhibition of carbonic anhydrase 2

>  <published_relation>  (402) 
=

>  <standard_value>  (402) 
23.2

>  <qudt_units>  (402) 
http://www.openphacts.org/units/Nanomolar

>  <target_tax_id>  (402) 
9606

>  <bao_label>  (402) 
single protein format

>  <published_units>  (402) 
nM

>  <pchembl_value>  (402) 
7.64

>  <published_type>  (402) 
IC50

>  <activity_comment>  (402) 
None

$$$$

     RDKit          

 23 24  0  0  0  0  0  0  0  0999 V2000
    0.0000    0.0000    0.0000 C   0  0  0  0  0  0  0  0  0  0  0  0
    0.0000    0.0000    0.0000 C   0  0  0  0  0  0  0  0  0  0  0  0
    0.0000    0.0000    0.0000 N   0  0  0  0  0  0  0  0  0  0  0  0
    0.0000    0.0000    0.0000 C   0  0  0  0  0  0  0  0  0  0  0  0
    0.0000    0.0000    0.0000 O   0  0  0  0  0  0  0  0  0  0  0  0
    0.0000    0.0000    0.0000 C   0  0  0  0  0  0  0  0  0  0  0  0
    0.0000    0.0000    0.0000 C   0  0  0  0  0  0  0  0  0  0  0  0
    0.0000    0.0000    0.0000 C   0  0  0  0  0  0  0  0  0  0  0  0
    0.0000    0.0000    0.0000 C   0  0  0  0  0  0  0  0  0  0  0  0
    0.0000    0.0000    0.0000 N   0  0  0  0  0  0  0  0  0  0  0  0
    0.0000    0.0000    0.0000 C   0  0  0  0  0  0  0  0  0  0  0  0
    0.0000    0.0000    0.0000 S   0  0  0  0  0  0  0  0  0  0  0  0
    0.0000    0.0000    0.0000 C   0  0  0  0  0  0  0  0  0  0  0  0
    0.0000    0.0000    0.0000 C   0  0  0  0  0  0  0  0  0  0  0  0
    0.0000    0.0000    0.0000 C   0  0  0  0  0  0  0  0  0  0  0  0
    0.0000    0.0000    0.0000 C   0  0  0  0  0  0  0  0  0  0  0  0
    0.0000    0.0000    0.0000 C   0  0  0  0  0  0  0  0  0  0  0  0
    0.0000    0.0000    0.0000 F   0  0  0  0  0  0  0  0  0  0  0  0
    0.0000    0.0000    0.0000 C   0  0  0  0  0  0  0  0  0  0  0  0
    0.0000    0.0000    0.0000 S   0  0  0  0  0  0  0  0  0  0  0  0
    0.0000    0.0000    0.0000 O   0  0  0  0  0  0  0  0  0  0  0  0
    0.0000    0.0000    0.0000 O   0  0  0  0  0  0  0  0  0  0  0  0
    0.0000    0.0000    0.0000 N   0  0  0  0  0  0  0  0  0  0  0  0
  1  2  1  0
  2  3  1  0
  3  4  1  0
  4  5  2  0
  4  6  1  0
  6  7  2  0
  7  8  1  0
  8  9  2  0
  9 10  1  0
 10 11  2  0
 11 12  1  0
 12 13  1  0
 13 14  2  0
 14 15  1  0
 15 16  2  0
 16 17  1  0
 17 18  1  0
 17 19  2  0
  8 20  1  0
 20 21  2  0
 20 22  2  0
 20 23  1  0
 11  6  1  0
 19 13  1  0
M  END
>  <pIC50>  (403) 
7.7

>  <ChEMBL_ID>  (403) 
CHEMBL1098349

>  <document_journal>  (403) 
Bioorg. Med. Chem.

>  <bao_endpoint>  (403) 
BAO_0000190

>  <potential_duplicate>  (403) 
False

>  <uo_units>  (403) 
UO_0000065

>  <canonical_smiles>  (403) 
CCNC(=O)c1cc(cnc1Sc2cccc(F)c2)S(=O)(=O)N

>  <parent_molecule_chembl_id>  (403) 
CHEMBL1098349

>  <assay_type>  (403) 
B

>  <src_id>  (403) 
1

>  <ligand_efficiency>  (403) 
{u'le': u'0.46', u'bei': u'21.67', u'sei': u'5.67', u'lle': u'5.9'}

>  <standard_flag>  (403) 
True

>  <molecule_chembl_id>  (403) 
CHEMBL1098349

>  <target_organism>  (403) 
Homo sapiens

>  <standard_units>  (403) 
nM

>  <record_id>  (403) 
909820

>  <document_chembl_id>  (403) 
CHEMBL1157929

>  <bao_format>  (403) 
BAO_0000357

>  <data_validity_description>  (403) 
None

>  <activity_id>  (403) 
3295925

>  <standard_type>  (403) 
IC50

>  <target_chembl_id>  (403) 
CHEMBL205

>  <data_validity_comment>  (403) 
None

>  <published_value>  (403) 
19.9

>  <document_year>  (403) 
2010

>  <target_pref_name>  (403) 
Carbonic anhydrase II

>  <assay_chembl_id>  (403) 
CHEMBL1106608

>  <standard_relation>  (403) 
=

>  <assay_description>  (403) 
Inhibition of carbonic anhydrase 2

>  <published_relation>  (403) 
=

>  <standard_value>  (403) 
19.9

>  <qudt_units>  (403) 
http://www.openphacts.org/units/Nanomolar

>  <target_tax_id>  (403) 
9606

>  <bao_label>  (403) 
single protein format

>  <published_units>  (403) 
nM

>  <pchembl_value>  (403) 
7.7

>  <published_type>  (403) 
IC50

>  <activity_comment>  (403) 
None

$$$$

     RDKit          

 31 33  0  0  0  0  0  0  0  0999 V2000
    0.0000    0.0000    0.0000 C   0  0  0  0  0  0  0  0  0  0  0  0
    0.0000    0.0000    0.0000 O   0  0  0  0  0  0  0  0  0  0  0  0
    0.0000    0.0000    0.0000 C   0  0  0  0  0  0  0  0  0  0  0  0
    0.0000    0.0000    0.0000 C   0  0  0  0  0  0  0  0  0  0  0  0
    0.0000    0.0000    0.0000 C   0  0  0  0  0  0  0  0  0  0  0  0
    0.0000    0.0000    0.0000 C   0  0  0  0  0  0  0  0  0  0  0  0
    0.0000    0.0000    0.0000 C   0  0  0  0  0  0  0  0  0  0  0  0
    0.0000    0.0000    0.0000 N   0  0  0  0  0  0  0  0  0  0  0  0
    0.0000    0.0000    0.0000 C   0  0  0  0  0  0  0  0  0  0  0  0
    0.0000    0.0000    0.0000 O   0  0  0  0  0  0  0  0  0  0  0  0
    0.0000    0.0000    0.0000 C   0  0  0  0  0  0  0  0  0  0  0  0
    0.0000    0.0000    0.0000 C   0  0  0  0  0  0  0  0  0  0  0  0
    0.0000    0.0000    0.0000 C   0  0  0  0  0  0  0  0  0  0  0  0
    0.0000    0.0000    0.0000 C   0  0  0  0  0  0  0  0  0  0  0  0
    0.0000    0.0000    0.0000 N   0  0  0  0  0  0  0  0  0  0  0  0
    0.0000    0.0000    0.0000 C   0  0  0  0  0  0  0  0  0  0  0  0
    0.0000    0.0000    0.0000 S   0  0  0  0  0  0  0  0  0  0  0  0
    0.0000    0.0000    0.0000 C   0  0  0  0  0  0  0  0  0  0  0  0
    0.0000    0.0000    0.0000 C   0  0  0  0  0  0  0  0  0  0  0  0
    0.0000    0.0000    0.0000 C   0  0  0  0  0  0  0  0  0  0  0  0
    0.0000    0.0000    0.0000 C   0  0  0  0  0  0  0  0  0  0  0  0
    0.0000    0.0000    0.0000 F   0  0  0  0  0  0  0  0  0  0  0  0
    0.0000    0.0000    0.0000 C   0  0  0  0  0  0  0  0  0  0  0  0
    0.0000    0.0000    0.0000 F   0  0  0  0  0  0  0  0  0  0  0  0
    0.0000    0.0000    0.0000 C   0  0  0  0  0  0  0  0  0  0  0  0
    0.0000    0.0000    0.0000 S   0  0  0  0  0  0  0  0  0  0  0  0
    0.0000    0.0000    0.0000 O   0  0  0  0  0  0  0  0  0  0  0  0
    0.0000    0.0000    0.0000 O   0  0  0  0  0  0  0  0  0  0  0  0
    0.0000    0.0000    0.0000 N   0  0  0  0  0  0  0  0  0  0  0  0
    0.0000    0.0000    0.0000 C   0  0  0  0  0  0  0  0  0  0  0  0
    0.0000    0.0000    0.0000 C   0  0  0  0  0  0  0  0  0  0  0  0
  1  2  1  0
  2  3  1  0
  3  4  2  0
  4  5  1  0
  5  6  2  0
  6  7  1  0
  7  8  1  0
  8  9  1  0
  9 10  2  0
  9 11  1  0
 11 12  2  0
 12 13  1  0
 13 14  2  0
 14 15  1  0
 15 16  2  0
 16 17  1  0
 17 18  1  0
 18 19  2  0
 19 20  1  0
 20 21  2  0
 21 22  1  0
 21 23  1  0
 23 24  1  0
 23 25  2  0
 13 26  1  0
 26 27  2  0
 26 28  2  0
 26 29  1  0
  6 30  1  0
 30 31  2  0
 31  3  1  0
 16 11  1  0
 25 18  1  0
M  END
>  <pIC50>  (404) 
8.66

>  <ChEMBL_ID>  (404) 
CHEMBL1095203

>  <document_journal>  (404) 
Bioorg. Med. Chem.

>  <bao_endpoint>  (404) 
BAO_0000190

>  <potential_duplicate>  (404) 
False

>  <uo_units>  (404) 
UO_0000065

>  <canonical_smiles>  (404) 
COc1ccc(CNC(=O)c2cc(cnc2Sc3ccc(F)c(F)c3)S(=O)(=O)N)cc1

>  <parent_molecule_chembl_id>  (404) 
CHEMBL1095203

>  <assay_type>  (404) 
B

>  <src_id>  (404) 
1

>  <ligand_efficiency>  (404) 
{u'le': u'0.38', u'bei': u'18.6', u'sei': u'5.97', u'lle': u'5.43'}

>  <standard_flag>  (404) 
True

>  <molecule_chembl_id>  (404) 
CHEMBL1095203

>  <target_organism>  (404) 
Homo sapiens

>  <standard_units>  (404) 
nM

>  <record_id>  (404) 
909821

>  <document_chembl_id>  (404) 
CHEMBL1157929

>  <bao_format>  (404) 
BAO_0000357

>  <data_validity_description>  (404) 
None

>  <activity_id>  (404) 
3295926

>  <standard_type>  (404) 
IC50

>  <target_chembl_id>  (404) 
CHEMBL205

>  <data_validity_comment>  (404) 
None

>  <published_value>  (404) 
2.19

>  <document_year>  (404) 
2010

>  <target_pref_name>  (404) 
Carbonic anhydrase II

>  <assay_chembl_id>  (404) 
CHEMBL1106608

>  <standard_relation>  (404) 
=

>  <assay_description>  (404) 
Inhibition of carbonic anhydrase 2

>  <published_relation>  (404) 
=

>  <standard_value>  (404) 
2.19

>  <qudt_units>  (404) 
http://www.openphacts.org/units/Nanomolar

>  <target_tax_id>  (404) 
9606

>  <bao_label>  (404) 
single protein format

>  <published_units>  (404) 
nM

>  <pchembl_value>  (404) 
8.66

>  <published_type>  (404) 
IC50

>  <activity_comment>  (404) 
None

$$$$

     RDKit          

 26 27  0  0  0  0  0  0  0  0999 V2000
    0.0000    0.0000    0.0000 C   0  0  0  0  0  0  0  0  0  0  0  0
    0.0000    0.0000    0.0000 O   0  0  0  0  0  0  0  0  0  0  0  0
    0.0000    0.0000    0.0000 C   0  0  0  0  0  0  0  0  0  0  0  0
    0.0000    0.0000    0.0000 C   0  0  0  0  0  0  0  0  0  0  0  0
    0.0000    0.0000    0.0000 C   0  0  0  0  0  0  0  0  0  0  0  0
    0.0000    0.0000    0.0000 N   0  0  0  0  0  0  0  0  0  0  0  0
    0.0000    0.0000    0.0000 C   0  0  0  0  0  0  0  0  0  0  0  0
    0.0000    0.0000    0.0000 O   0  0  0  0  0  0  0  0  0  0  0  0
    0.0000    0.0000    0.0000 C   0  0  0  0  0  0  0  0  0  0  0  0
    0.0000    0.0000    0.0000 C   0  0  0  0  0  0  0  0  0  0  0  0
    0.0000    0.0000    0.0000 C   0  0  0  0  0  0  0  0  0  0  0  0
    0.0000    0.0000    0.0000 C   0  0  0  0  0  0  0  0  0  0  0  0
    0.0000    0.0000    0.0000 N   0  0  0  0  0  0  0  0  0  0  0  0
    0.0000    0.0000    0.0000 C   0  0  0  0  0  0  0  0  0  0  0  0
    0.0000    0.0000    0.0000 S   0  0  0  0  0  0  0  0  0  0  0  0
    0.0000    0.0000    0.0000 C   0  0  0  0  0  0  0  0  0  0  0  0
    0.0000    0.0000    0.0000 C   0  0  0  0  0  0  0  0  0  0  0  0
    0.0000    0.0000    0.0000 C   0  0  0  0  0  0  0  0  0  0  0  0
    0.0000    0.0000    0.0000 C   0  0  0  0  0  0  0  0  0  0  0  0
    0.0000    0.0000    0.0000 C   0  0  0  0  0  0  0  0  0  0  0  0
    0.0000    0.0000    0.0000 F   0  0  0  0  0  0  0  0  0  0  0  0
    0.0000    0.0000    0.0000 C   0  0  0  0  0  0  0  0  0  0  0  0
    0.0000    0.0000    0.0000 S   0  0  0  0  0  0  0  0  0  0  0  0
    0.0000    0.0000    0.0000 O   0  0  0  0  0  0  0  0  0  0  0  0
    0.0000    0.0000    0.0000 O   0  0  0  0  0  0  0  0  0  0  0  0
    0.0000    0.0000    0.0000 N   0  0  0  0  0  0  0  0  0  0  0  0
  1  2  1  0
  2  3  1  0
  3  4  1  0
  4  5  1  0
  5  6  1  0
  6  7  1  0
  7  8  2  0
  7  9  1  0
  9 10  2  0
 10 11  1  0
 11 12  2  0
 12 13  1  0
 13 14  2  0
 14 15  1  0
 15 16  1  0
 16 17  2  0
 17 18  1  0
 18 19  2  0
 19 20  1  0
 20 21  1  0
 20 22  2  0
 11 23  1  0
 23 24  2  0
 23 25  2  0
 23 26  1  0
 14  9  1  0
 22 16  1  0
M  END
>  <pIC50>  (405) 
7.59

>  <ChEMBL_ID>  (405) 
CHEMBL1095204

>  <document_journal>  (405) 
Bioorg. Med. Chem.

>  <bao_endpoint>  (405) 
BAO_0000190

>  <potential_duplicate>  (405) 
False

>  <uo_units>  (405) 
UO_0000065

>  <canonical_smiles>  (405) 
COCCCNC(=O)c1cc(cnc1Sc2cccc(F)c2)S(=O)(=O)N

>  <parent_molecule_chembl_id>  (405) 
CHEMBL1095204

>  <assay_type>  (405) 
B

>  <src_id>  (405) 
1

>  <ligand_efficiency>  (405) 
{u'le': u'0.4', u'bei': u'19', u'sei': u'5.23', u'lle': u'6.2'}

>  <standard_flag>  (405) 
True

>  <molecule_chembl_id>  (405) 
CHEMBL1095204

>  <target_organism>  (405) 
Homo sapiens

>  <standard_units>  (405) 
nM

>  <record_id>  (405) 
909822

>  <document_chembl_id>  (405) 
CHEMBL1157929

>  <bao_format>  (405) 
BAO_0000357

>  <data_validity_description>  (405) 
None

>  <activity_id>  (405) 
3295927

>  <standard_type>  (405) 
IC50

>  <target_chembl_id>  (405) 
CHEMBL205

>  <data_validity_comment>  (405) 
None

>  <published_value>  (405) 
25.8

>  <document_year>  (405) 
2010

>  <target_pref_name>  (405) 
Carbonic anhydrase II

>  <assay_chembl_id>  (405) 
CHEMBL1106608

>  <standard_relation>  (405) 
=

>  <assay_description>  (405) 
Inhibition of carbonic anhydrase 2

>  <published_relation>  (405) 
=

>  <standard_value>  (405) 
25.8

>  <qudt_units>  (405) 
http://www.openphacts.org/units/Nanomolar

>  <target_tax_id>  (405) 
9606

>  <bao_label>  (405) 
single protein format

>  <published_units>  (405) 
nM

>  <pchembl_value>  (405) 
7.59

>  <published_type>  (405) 
IC50

>  <activity_comment>  (405) 
None

$$$$

     RDKit          

 29 30  0  0  0  0  0  0  0  0999 V2000
    0.0000    0.0000    0.0000 C   0  0  0  0  0  0  0  0  0  0  0  0
    0.0000    0.0000    0.0000 O   0  0  0  0  0  0  0  0  0  0  0  0
    0.0000    0.0000    0.0000 C   0  0  0  0  0  0  0  0  0  0  0  0
    0.0000    0.0000    0.0000 C   0  0  0  0  0  0  0  0  0  0  0  0
    0.0000    0.0000    0.0000 C   0  0  0  0  0  0  0  0  0  0  0  0
    0.0000    0.0000    0.0000 N   0  0  0  0  0  0  0  0  0  0  0  0
    0.0000    0.0000    0.0000 C   0  0  0  0  0  0  0  0  0  0  0  0
    0.0000    0.0000    0.0000 O   0  0  0  0  0  0  0  0  0  0  0  0
    0.0000    0.0000    0.0000 C   0  0  0  0  0  0  0  0  0  0  0  0
    0.0000    0.0000    0.0000 C   0  0  0  0  0  0  0  0  0  0  0  0
    0.0000    0.0000    0.0000 C   0  0  0  0  0  0  0  0  0  0  0  0
    0.0000    0.0000    0.0000 C   0  0  0  0  0  0  0  0  0  0  0  0
    0.0000    0.0000    0.0000 N   0  0  0  0  0  0  0  0  0  0  0  0
    0.0000    0.0000    0.0000 C   0  0  0  0  0  0  0  0  0  0  0  0
    0.0000    0.0000    0.0000 S   0  0  0  0  0  0  0  0  0  0  0  0
    0.0000    0.0000    0.0000 C   0  0  0  0  0  0  0  0  0  0  0  0
    0.0000    0.0000    0.0000 C   0  0  0  0  0  0  0  0  0  0  0  0
    0.0000    0.0000    0.0000 F   0  0  0  0  0  0  0  0  0  0  0  0
    0.0000    0.0000    0.0000 C   0  0  0  0  0  0  0  0  0  0  0  0
    0.0000    0.0000    0.0000 F   0  0  0  0  0  0  0  0  0  0  0  0
    0.0000    0.0000    0.0000 C   0  0  0  0  0  0  0  0  0  0  0  0
    0.0000    0.0000    0.0000 C   0  0  0  0  0  0  0  0  0  0  0  0
    0.0000    0.0000    0.0000 F   0  0  0  0  0  0  0  0  0  0  0  0
    0.0000    0.0000    0.0000 C   0  0  0  0  0  0  0  0  0  0  0  0
    0.0000    0.0000    0.0000 F   0  0  0  0  0  0  0  0  0  0  0  0
    0.0000    0.0000    0.0000 S   0  0  0  0  0  0  0  0  0  0  0  0
    0.0000    0.0000    0.0000 O   0  0  0  0  0  0  0  0  0  0  0  0
    0.0000    0.0000    0.0000 O   0  0  0  0  0  0  0  0  0  0  0  0
    0.0000    0.0000    0.0000 N   0  0  0  0  0  0  0  0  0  0  0  0
  1  2  1  0
  2  3  1  0
  3  4  1  0
  4  5  1  0
  5  6  1  0
  6  7  1  0
  7  8  2  0
  7  9  1  0
  9 10  2  0
 10 11  1  0
 11 12  2  0
 12 13  1  0
 13 14  2  0
 14 15  1  0
 15 16  1  0
 16 17  2  0
 17 18  1  0
 17 19  1  0
 19 20  1  0
 19 21  2  0
 21 22  1  0
 22 23  1  0
 22 24  2  0
 24 25  1  0
 11 26  1  0
 26 27  2  0
 26 28  2  0
 26 29  1  0
 14  9  1  0
 24 16  1  0
M  END
>  <pIC50>  (406) 
7.98

>  <ChEMBL_ID>  (406) 
CHEMBL1099137

>  <document_journal>  (406) 
Bioorg. Med. Chem.

>  <bao_endpoint>  (406) 
BAO_0000190

>  <potential_duplicate>  (406) 
False

>  <uo_units>  (406) 
UO_0000065

>  <canonical_smiles>  (406) 
COCCCNC(=O)c1cc(cnc1Sc2c(F)c(F)cc(F)c2F)S(=O)(=O)N

>  <parent_molecule_chembl_id>  (406) 
CHEMBL1099137

>  <assay_type>  (406) 
B

>  <src_id>  (406) 
1

>  <ligand_efficiency>  (406) 
{u'le': u'0.38', u'bei': u'17.59', u'sei': u'5.5', u'lle': u'5.97'}

>  <standard_flag>  (406) 
True

>  <molecule_chembl_id>  (406) 
CHEMBL1099137

>  <target_organism>  (406) 
Homo sapiens

>  <standard_units>  (406) 
nM

>  <record_id>  (406) 
909823

>  <document_chembl_id>  (406) 
CHEMBL1157929

>  <bao_format>  (406) 
BAO_0000357

>  <data_validity_description>  (406) 
None

>  <activity_id>  (406) 
3295928

>  <standard_type>  (406) 
IC50

>  <target_chembl_id>  (406) 
CHEMBL205

>  <data_validity_comment>  (406) 
None

>  <published_value>  (406) 
10.6

>  <document_year>  (406) 
2010

>  <target_pref_name>  (406) 
Carbonic anhydrase II

>  <assay_chembl_id>  (406) 
CHEMBL1106608

>  <standard_relation>  (406) 
=

>  <assay_description>  (406) 
Inhibition of carbonic anhydrase 2

>  <published_relation>  (406) 
=

>  <standard_value>  (406) 
10.6

>  <qudt_units>  (406) 
http://www.openphacts.org/units/Nanomolar

>  <target_tax_id>  (406) 
9606

>  <bao_label>  (406) 
single protein format

>  <published_units>  (406) 
nM

>  <pchembl_value>  (406) 
7.98

>  <published_type>  (406) 
IC50

>  <activity_comment>  (406) 
None

$$$$

     RDKit          

 27 28  0  0  0  0  0  0  0  0999 V2000
    0.0000    0.0000    0.0000 C   0  0  0  0  0  0  0  0  0  0  0  0
    0.0000    0.0000    0.0000 O   0  0  0  0  0  0  0  0  0  0  0  0
    0.0000    0.0000    0.0000 C   0  0  0  0  0  0  0  0  0  0  0  0
    0.0000    0.0000    0.0000 C   0  0  0  0  0  0  0  0  0  0  0  0
    0.0000    0.0000    0.0000 C   0  0  0  0  0  0  0  0  0  0  0  0
    0.0000    0.0000    0.0000 N   0  0  0  0  0  0  0  0  0  0  0  0
    0.0000    0.0000    0.0000 C   0  0  0  0  0  0  0  0  0  0  0  0
    0.0000    0.0000    0.0000 O   0  0  0  0  0  0  0  0  0  0  0  0
    0.0000    0.0000    0.0000 C   0  0  0  0  0  0  0  0  0  0  0  0
    0.0000    0.0000    0.0000 C   0  0  0  0  0  0  0  0  0  0  0  0
    0.0000    0.0000    0.0000 C   0  0  0  0  0  0  0  0  0  0  0  0
    0.0000    0.0000    0.0000 C   0  0  0  0  0  0  0  0  0  0  0  0
    0.0000    0.0000    0.0000 N   0  0  0  0  0  0  0  0  0  0  0  0
    0.0000    0.0000    0.0000 C   0  0  0  0  0  0  0  0  0  0  0  0
    0.0000    0.0000    0.0000 S   0  0  0  0  0  0  0  0  0  0  0  0
    0.0000    0.0000    0.0000 C   0  0  0  0  0  0  0  0  0  0  0  0
    0.0000    0.0000    0.0000 C   0  0  0  0  0  0  0  0  0  0  0  0
    0.0000    0.0000    0.0000 C   0  0  0  0  0  0  0  0  0  0  0  0
    0.0000    0.0000    0.0000 C   0  0  0  0  0  0  0  0  0  0  0  0
    0.0000    0.0000    0.0000 F   0  0  0  0  0  0  0  0  0  0  0  0
    0.0000    0.0000    0.0000 C   0  0  0  0  0  0  0  0  0  0  0  0
    0.0000    0.0000    0.0000 F   0  0  0  0  0  0  0  0  0  0  0  0
    0.0000    0.0000    0.0000 C   0  0  0  0  0  0  0  0  0  0  0  0
    0.0000    0.0000    0.0000 S   0  0  0  0  0  0  0  0  0  0  0  0
    0.0000    0.0000    0.0000 O   0  0  0  0  0  0  0  0  0  0  0  0
    0.0000    0.0000    0.0000 O   0  0  0  0  0  0  0  0  0  0  0  0
    0.0000    0.0000    0.0000 N   0  0  0  0  0  0  0  0  0  0  0  0
  1  2  1  0
  2  3  1  0
  3  4  1  0
  4  5  1  0
  5  6  1  0
  6  7  1  0
  7  8  2  0
  7  9  1  0
  9 10  2  0
 10 11  1  0
 11 12  2  0
 12 13  1  0
 13 14  2  0
 14 15  1  0
 15 16  1  0
 16 17  2  0
 17 18  1  0
 18 19  2  0
 19 20  1  0
 19 21  1  0
 21 22  1  0
 21 23  2  0
 11 24  1  0
 24 25  2  0
 24 26  2  0
 24 27  1  0
 14  9  1  0
 23 16  1  0
M  END
>  <pIC50>  (407) 
7.46

>  <ChEMBL_ID>  (407) 
CHEMBL1086834

>  <document_journal>  (407) 
Bioorg. Med. Chem.

>  <bao_endpoint>  (407) 
BAO_0000190

>  <potential_duplicate>  (407) 
False

>  <uo_units>  (407) 
UO_0000065

>  <canonical_smiles>  (407) 
COCCCNC(=O)c1cc(cnc1Sc2ccc(F)c(F)c2)S(=O)(=O)N

>  <parent_molecule_chembl_id>  (407) 
CHEMBL1086834

>  <assay_type>  (407) 
B

>  <src_id>  (407) 
1

>  <ligand_efficiency>  (407) 
{u'le': u'0.38', u'bei': u'17.87', u'sei': u'5.14', u'lle': u'5.87'}

>  <standard_flag>  (407) 
True

>  <molecule_chembl_id>  (407) 
CHEMBL1086834

>  <target_organism>  (407) 
Homo sapiens

>  <standard_units>  (407) 
nM

>  <record_id>  (407) 
909908

>  <document_chembl_id>  (407) 
CHEMBL1157929

>  <bao_format>  (407) 
BAO_0000357

>  <data_validity_description>  (407) 
None

>  <activity_id>  (407) 
3295929

>  <standard_type>  (407) 
IC50

>  <target_chembl_id>  (407) 
CHEMBL205

>  <data_validity_comment>  (407) 
None

>  <published_value>  (407) 
34.6

>  <document_year>  (407) 
2010

>  <target_pref_name>  (407) 
Carbonic anhydrase II

>  <assay_chembl_id>  (407) 
CHEMBL1106608

>  <standard_relation>  (407) 
=

>  <assay_description>  (407) 
Inhibition of carbonic anhydrase 2

>  <published_relation>  (407) 
=

>  <standard_value>  (407) 
34.6

>  <qudt_units>  (407) 
http://www.openphacts.org/units/Nanomolar

>  <target_tax_id>  (407) 
9606

>  <bao_label>  (407) 
single protein format

>  <published_units>  (407) 
nM

>  <pchembl_value>  (407) 
7.46

>  <published_type>  (407) 
IC50

>  <activity_comment>  (407) 
None

$$$$

     RDKit          

 32 34  0  0  0  0  0  0  0  0999 V2000
    0.0000    0.0000    0.0000 N   0  0  0  0  0  0  0  0  0  0  0  0
    0.0000    0.0000    0.0000 S   0  0  0  0  0  0  0  0  0  0  0  0
    0.0000    0.0000    0.0000 O   0  0  0  0  0  0  0  0  0  0  0  0
    0.0000    0.0000    0.0000 O   0  0  0  0  0  0  0  0  0  0  0  0
    0.0000    0.0000    0.0000 C   0  0  0  0  0  0  0  0  0  0  0  0
    0.0000    0.0000    0.0000 C   0  0  0  0  0  0  0  0  0  0  0  0
    0.0000    0.0000    0.0000 C   0  0  0  0  0  0  0  0  0  0  0  0
    0.0000    0.0000    0.0000 C   0  0  0  0  0  0  0  0  0  0  0  0
    0.0000    0.0000    0.0000 S   0  0  0  0  0  0  0  0  0  0  0  0
    0.0000    0.0000    0.0000 C   0  0  0  0  0  0  0  0  0  0  0  0
    0.0000    0.0000    0.0000 C   0  0  0  0  0  0  0  0  0  0  0  0
    0.0000    0.0000    0.0000 F   0  0  0  0  0  0  0  0  0  0  0  0
    0.0000    0.0000    0.0000 C   0  0  0  0  0  0  0  0  0  0  0  0
    0.0000    0.0000    0.0000 F   0  0  0  0  0  0  0  0  0  0  0  0
    0.0000    0.0000    0.0000 C   0  0  0  0  0  0  0  0  0  0  0  0
    0.0000    0.0000    0.0000 C   0  0  0  0  0  0  0  0  0  0  0  0
    0.0000    0.0000    0.0000 F   0  0  0  0  0  0  0  0  0  0  0  0
    0.0000    0.0000    0.0000 C   0  0  0  0  0  0  0  0  0  0  0  0
    0.0000    0.0000    0.0000 F   0  0  0  0  0  0  0  0  0  0  0  0
    0.0000    0.0000    0.0000 C   0  0  0  0  0  0  0  0  0  0  0  0
    0.0000    0.0000    0.0000 C   0  0  0  0  0  0  0  0  0  0  0  0
    0.0000    0.0000    0.0000 C   0  0  0  0  0  0  0  0  0  0  0  0
    0.0000    0.0000    0.0000 O   0  0  0  0  0  0  0  0  0  0  0  0
    0.0000    0.0000    0.0000 N   0  0  0  0  0  0  0  0  0  0  0  0
    0.0000    0.0000    0.0000 C   0  0  0  0  0  0  0  0  0  0  0  0
    0.0000    0.0000    0.0000 C   0  0  0  0  0  0  0  0  0  0  0  0
    0.0000    0.0000    0.0000 C   0  0  0  0  0  0  0  0  0  0  0  0
    0.0000    0.0000    0.0000 C   0  0  0  0  0  0  0  0  0  0  0  0
    0.0000    0.0000    0.0000 C   0  0  0  0  0  0  0  0  0  0  0  0
    0.0000    0.0000    0.0000 C   0  0  0  0  0  0  0  0  0  0  0  0
    0.0000    0.0000    0.0000 C   0  0  0  0  0  0  0  0  0  0  0  0
    0.0000    0.0000    0.0000 N   0  0  0  0  0  0  0  0  0  0  0  0
  1  2  1  0
  2  3  2  0
  2  4  2  0
  2  5  1  0
  5  6  2  0
  6  7  1  0
  7  8  2  0
  8  9  1  0
  9 10  1  0
 10 11  2  0
 11 12  1  0
 11 13  1  0
 13 14  1  0
 13 15  2  0
 15 16  1  0
 16 17  1  0
 16 18  2  0
 18 19  1  0
  8 20  1  0
 20 21  2  0
 20 22  1  0
 22 23  2  0
 22 24  1  0
 24 25  1  0
 25 26  1  0
 26 27  1  0
 27 28  2  0
 28 29  1  0
 29 30  2  0
 30 31  1  0
 31 32  2  0
 21  5  1  0
 18 10  1  0
 32 27  1  0
M  END
>  <pIC50>  (408) 
7.74

>  <ChEMBL_ID>  (408) 
CHEMBL1095531

>  <document_journal>  (408) 
Bioorg. Med. Chem.

>  <bao_endpoint>  (408) 
BAO_0000190

>  <potential_duplicate>  (408) 
False

>  <uo_units>  (408) 
UO_0000065

>  <canonical_smiles>  (408) 
NS(=O)(=O)c1ccc(Sc2c(F)c(F)cc(F)c2F)c(c1)C(=O)NCCc3ccccn3

>  <parent_molecule_chembl_id>  (408) 
CHEMBL1095531

>  <assay_type>  (408) 
B

>  <src_id>  (408) 
1

>  <ligand_efficiency>  (408) 
{u'le': u'0.33', u'bei': u'15.93', u'sei': u'5.7', u'lle': u'4.16'}

>  <standard_flag>  (408) 
True

>  <molecule_chembl_id>  (408) 
CHEMBL1095531

>  <target_organism>  (408) 
Homo sapiens

>  <standard_units>  (408) 
nM

>  <record_id>  (408) 
909909

>  <document_chembl_id>  (408) 
CHEMBL1157929

>  <bao_format>  (408) 
BAO_0000357

>  <data_validity_description>  (408) 
None

>  <activity_id>  (408) 
3295930

>  <standard_type>  (408) 
IC50

>  <target_chembl_id>  (408) 
CHEMBL205

>  <data_validity_comment>  (408) 
None

>  <published_value>  (408) 
18.4

>  <document_year>  (408) 
2010

>  <target_pref_name>  (408) 
Carbonic anhydrase II

>  <assay_chembl_id>  (408) 
CHEMBL1106608

>  <standard_relation>  (408) 
=

>  <assay_description>  (408) 
Inhibition of carbonic anhydrase 2

>  <published_relation>  (408) 
=

>  <standard_value>  (408) 
18.4

>  <qudt_units>  (408) 
http://www.openphacts.org/units/Nanomolar

>  <target_tax_id>  (408) 
9606

>  <bao_label>  (408) 
single protein format

>  <published_units>  (408) 
nM

>  <pchembl_value>  (408) 
7.74

>  <published_type>  (408) 
IC50

>  <activity_comment>  (408) 
None

$$$$

     RDKit          

 29 30  0  0  0  0  0  0  0  0999 V2000
    0.0000    0.0000    0.0000 N   0  0  0  0  0  0  0  0  0  0  0  0
    0.0000    0.0000    0.0000 C   0  0  0  0  0  0  0  0  0  0  0  0
    0.0000    0.0000    0.0000 C   0  0  0  0  0  0  0  0  0  0  0  0
    0.0000    0.0000    0.0000 C   0  0  0  0  0  0  0  0  0  0  0  0
    0.0000    0.0000    0.0000 C   0  0  0  0  0  0  0  0  0  0  0  0
    0.0000    0.0000    0.0000 N   0  0  0  0  0  0  0  0  0  0  0  0
    0.0000    0.0000    0.0000 C   0  0  0  0  0  0  0  0  0  0  0  0
    0.0000    0.0000    0.0000 O   0  0  0  0  0  0  0  0  0  0  0  0
    0.0000    0.0000    0.0000 C   0  0  0  0  0  0  0  0  0  0  0  0
    0.0000    0.0000    0.0000 C   0  0  0  0  0  0  0  0  0  0  0  0
    0.0000    0.0000    0.0000 C   0  0  0  0  0  0  0  0  0  0  0  0
    0.0000    0.0000    0.0000 C   0  0  0  0  0  0  0  0  0  0  0  0
    0.0000    0.0000    0.0000 N   0  0  0  0  0  0  0  0  0  0  0  0
    0.0000    0.0000    0.0000 C   0  0  0  0  0  0  0  0  0  0  0  0
    0.0000    0.0000    0.0000 S   0  0  0  0  0  0  0  0  0  0  0  0
    0.0000    0.0000    0.0000 C   0  0  0  0  0  0  0  0  0  0  0  0
    0.0000    0.0000    0.0000 C   0  0  0  0  0  0  0  0  0  0  0  0
    0.0000    0.0000    0.0000 F   0  0  0  0  0  0  0  0  0  0  0  0
    0.0000    0.0000    0.0000 C   0  0  0  0  0  0  0  0  0  0  0  0
    0.0000    0.0000    0.0000 F   0  0  0  0  0  0  0  0  0  0  0  0
    0.0000    0.0000    0.0000 C   0  0  0  0  0  0  0  0  0  0  0  0
    0.0000    0.0000    0.0000 C   0  0  0  0  0  0  0  0  0  0  0  0
    0.0000    0.0000    0.0000 F   0  0  0  0  0  0  0  0  0  0  0  0
    0.0000    0.0000    0.0000 C   0  0  0  0  0  0  0  0  0  0  0  0
    0.0000    0.0000    0.0000 F   0  0  0  0  0  0  0  0  0  0  0  0
    0.0000    0.0000    0.0000 S   0  0  0  0  0  0  0  0  0  0  0  0
    0.0000    0.0000    0.0000 O   0  0  0  0  0  0  0  0  0  0  0  0
    0.0000    0.0000    0.0000 O   0  0  0  0  0  0  0  0  0  0  0  0
    0.0000    0.0000    0.0000 N   0  0  0  0  0  0  0  0  0  0  0  0
  1  2  1  0
  2  3  1  0
  3  4  1  0
  4  5  1  0
  5  6  1  0
  6  7  1  0
  7  8  2  0
  7  9  1  0
  9 10  2  0
 10 11  1  0
 11 12  2  0
 12 13  1  0
 13 14  2  0
 14 15  1  0
 15 16  1  0
 16 17  2  0
 17 18  1  0
 17 19  1  0
 19 20  1  0
 19 21  2  0
 21 22  1  0
 22 23  1  0
 22 24  2  0
 24 25  1  0
 11 26  1  0
 26 27  2  0
 26 28  2  0
 26 29  1  0
 14  9  1  0
 24 16  1  0
M  END
>  <pIC50>  (409) 
7.34

>  <ChEMBL_ID>  (409) 
CHEMBL1099151

>  <document_journal>  (409) 
Bioorg. Med. Chem.

>  <bao_endpoint>  (409) 
BAO_0000190

>  <potential_duplicate>  (409) 
False

>  <uo_units>  (409) 
UO_0000065

>  <canonical_smiles>  (409) 
NCCCCNC(=O)c1cc(cnc1Sc2c(F)c(F)cc(F)c2F)S(=O)(=O)N

>  <parent_molecule_chembl_id>  (409) 
CHEMBL1099151

>  <assay_type>  (409) 
B

>  <src_id>  (409) 
1

>  <ligand_efficiency>  (409) 
{u'le': u'0.35', u'bei': u'16.22', u'sei': u'4.53', u'lle': u'5.45'}

>  <standard_flag>  (409) 
True

>  <molecule_chembl_id>  (409) 
CHEMBL1099151

>  <target_organism>  (409) 
Homo sapiens

>  <standard_units>  (409) 
nM

>  <record_id>  (409) 
909910

>  <document_chembl_id>  (409) 
CHEMBL1157929

>  <bao_format>  (409) 
BAO_0000357

>  <data_validity_description>  (409) 
None

>  <activity_id>  (409) 
3295931

>  <standard_type>  (409) 
IC50

>  <target_chembl_id>  (409) 
CHEMBL205

>  <data_validity_comment>  (409) 
None

>  <published_value>  (409) 
45.9

>  <document_year>  (409) 
2010

>  <target_pref_name>  (409) 
Carbonic anhydrase II

>  <assay_chembl_id>  (409) 
CHEMBL1106608

>  <standard_relation>  (409) 
=

>  <assay_description>  (409) 
Inhibition of carbonic anhydrase 2

>  <published_relation>  (409) 
=

>  <standard_value>  (409) 
45.9

>  <qudt_units>  (409) 
http://www.openphacts.org/units/Nanomolar

>  <target_tax_id>  (409) 
9606

>  <bao_label>  (409) 
single protein format

>  <published_units>  (409) 
nM

>  <pchembl_value>  (409) 
7.34

>  <published_type>  (409) 
IC50

>  <activity_comment>  (409) 
None

$$$$

     RDKit          

 35 37  0  0  0  0  0  0  0  0999 V2000
    0.0000    0.0000    0.0000 C   0  0  0  0  0  0  0  0  0  0  0  0
    0.0000    0.0000    0.0000 O   0  0  0  0  0  0  0  0  0  0  0  0
    0.0000    0.0000    0.0000 C   0  0  0  0  0  0  0  0  0  0  0  0
    0.0000    0.0000    0.0000 C   0  0  0  0  0  0  0  0  0  0  0  0
    0.0000    0.0000    0.0000 C   0  0  0  0  0  0  0  0  0  0  0  0
    0.0000    0.0000    0.0000 C   0  0  0  0  0  0  0  0  0  0  0  0
    0.0000    0.0000    0.0000 C   0  0  0  0  0  0  0  0  0  0  0  0
    0.0000    0.0000    0.0000 C   0  0  0  0  0  0  0  0  0  0  0  0
    0.0000    0.0000    0.0000 C   0  0  0  0  0  0  0  0  0  0  0  0
    0.0000    0.0000    0.0000 N   0  0  0  0  0  0  0  0  0  0  0  0
    0.0000    0.0000    0.0000 C   0  0  0  0  0  0  0  0  0  0  0  0
    0.0000    0.0000    0.0000 O   0  0  0  0  0  0  0  0  0  0  0  0
    0.0000    0.0000    0.0000 C   0  0  0  0  0  0  0  0  0  0  0  0
    0.0000    0.0000    0.0000 C   0  0  0  0  0  0  0  0  0  0  0  0
    0.0000    0.0000    0.0000 C   0  0  0  0  0  0  0  0  0  0  0  0
    0.0000    0.0000    0.0000 C   0  0  0  0  0  0  0  0  0  0  0  0
    0.0000    0.0000    0.0000 N   0  0  0  0  0  0  0  0  0  0  0  0
    0.0000    0.0000    0.0000 C   0  0  0  0  0  0  0  0  0  0  0  0
    0.0000    0.0000    0.0000 S   0  0  0  0  0  0  0  0  0  0  0  0
    0.0000    0.0000    0.0000 C   0  0  0  0  0  0  0  0  0  0  0  0
    0.0000    0.0000    0.0000 C   0  0  0  0  0  0  0  0  0  0  0  0
    0.0000    0.0000    0.0000 F   0  0  0  0  0  0  0  0  0  0  0  0
    0.0000    0.0000    0.0000 C   0  0  0  0  0  0  0  0  0  0  0  0
    0.0000    0.0000    0.0000 F   0  0  0  0  0  0  0  0  0  0  0  0
    0.0000    0.0000    0.0000 C   0  0  0  0  0  0  0  0  0  0  0  0
    0.0000    0.0000    0.0000 C   0  0  0  0  0  0  0  0  0  0  0  0
    0.0000    0.0000    0.0000 F   0  0  0  0  0  0  0  0  0  0  0  0
    0.0000    0.0000    0.0000 C   0  0  0  0  0  0  0  0  0  0  0  0
    0.0000    0.0000    0.0000 F   0  0  0  0  0  0  0  0  0  0  0  0
    0.0000    0.0000    0.0000 S   0  0  0  0  0  0  0  0  0  0  0  0
    0.0000    0.0000    0.0000 O   0  0  0  0  0  0  0  0  0  0  0  0
    0.0000    0.0000    0.0000 O   0  0  0  0  0  0  0  0  0  0  0  0
    0.0000    0.0000    0.0000 N   0  0  0  0  0  0  0  0  0  0  0  0
    0.0000    0.0000    0.0000 C   0  0  0  0  0  0  0  0  0  0  0  0
    0.0000    0.0000    0.0000 C   0  0  0  0  0  0  0  0  0  0  0  0
  1  2  1  0
  2  3  1  0
  3  4  2  0
  4  5  1  0
  5  6  2  0
  6  7  1  0
  7  8  1  0
  8  9  1  0
  9 10  1  0
 10 11  1  0
 11 12  2  0
 11 13  1  0
 13 14  2  0
 14 15  1  0
 15 16  2  0
 16 17  1  0
 17 18  2  0
 18 19  1  0
 19 20  1  0
 20 21  2  0
 21 22  1  0
 21 23  1  0
 23 24  1  0
 23 25  2  0
 25 26  1  0
 26 27  1  0
 26 28  2  0
 28 29  1  0
 15 30  1  0
 30 31  2  0
 30 32  2  0
 30 33  1  0
  6 34  1  0
 34 35  2  0
 35  3  1  0
 18 13  1  0
 28 20  1  0
M  END
>  <pIC50>  (410) 
7.94

>  <ChEMBL_ID>  (410) 
CHEMBL1099152

>  <document_journal>  (410) 
Bioorg. Med. Chem.

>  <bao_endpoint>  (410) 
BAO_0000190

>  <potential_duplicate>  (410) 
False

>  <uo_units>  (410) 
UO_0000065

>  <canonical_smiles>  (410) 
COc1ccc(CCCNC(=O)c2cc(cnc2Sc3c(F)c(F)cc(F)c3F)S(=O)(=O)N)cc1

>  <parent_molecule_chembl_id>  (410) 
CHEMBL1099152

>  <assay_type>  (410) 
B

>  <src_id>  (410) 
1

>  <ligand_efficiency>  (410) 
{u'le': u'0.31', u'bei': u'14.99', u'sei': u'5.47', u'lle': u'3.52'}

>  <standard_flag>  (410) 
True

>  <molecule_chembl_id>  (410) 
CHEMBL1099152

>  <target_organism>  (410) 
Homo sapiens

>  <standard_units>  (410) 
nM

>  <record_id>  (410) 
909911

>  <document_chembl_id>  (410) 
CHEMBL1157929

>  <bao_format>  (410) 
BAO_0000357

>  <data_validity_description>  (410) 
None

>  <activity_id>  (410) 
3295932

>  <standard_type>  (410) 
IC50

>  <target_chembl_id>  (410) 
CHEMBL205

>  <data_validity_comment>  (410) 
None

>  <published_value>  (410) 
11.5

>  <document_year>  (410) 
2010

>  <target_pref_name>  (410) 
Carbonic anhydrase II

>  <assay_chembl_id>  (410) 
CHEMBL1106608

>  <standard_relation>  (410) 
=

>  <assay_description>  (410) 
Inhibition of carbonic anhydrase 2

>  <published_relation>  (410) 
=

>  <standard_value>  (410) 
11.5

>  <qudt_units>  (410) 
http://www.openphacts.org/units/Nanomolar

>  <target_tax_id>  (410) 
9606

>  <bao_label>  (410) 
single protein format

>  <published_units>  (410) 
nM

>  <pchembl_value>  (410) 
7.94

>  <published_type>  (410) 
IC50

>  <activity_comment>  (410) 
None

$$$$

     RDKit          

 21 22  0  0  0  0  0  0  0  0999 V2000
    0.0000    0.0000    0.0000 N   0  0  0  0  0  0  0  0  0  0  0  0
    0.0000    0.0000    0.0000 S   0  0  0  0  0  0  0  0  0  0  0  0
    0.0000    0.0000    0.0000 O   0  0  0  0  0  0  0  0  0  0  0  0
    0.0000    0.0000    0.0000 O   0  0  0  0  0  0  0  0  0  0  0  0
    0.0000    0.0000    0.0000 C   0  0  0  0  0  0  0  0  0  0  0  0
    0.0000    0.0000    0.0000 C   0  0  0  0  0  0  0  0  0  0  0  0
    0.0000    0.0000    0.0000 N   0  0  0  0  0  0  0  0  0  0  0  0
    0.0000    0.0000    0.0000 C   0  0  0  0  0  0  0  0  0  0  0  0
    0.0000    0.0000    0.0000 S   0  0  0  0  0  0  0  0  0  0  0  0
    0.0000    0.0000    0.0000 C   0  0  0  0  0  0  0  0  0  0  0  0
    0.0000    0.0000    0.0000 C   0  0  0  0  0  0  0  0  0  0  0  0
    0.0000    0.0000    0.0000 C   0  0  0  0  0  0  0  0  0  0  0  0
    0.0000    0.0000    0.0000 C   0  0  0  0  0  0  0  0  0  0  0  0
    0.0000    0.0000    0.0000 F   0  0  0  0  0  0  0  0  0  0  0  0
    0.0000    0.0000    0.0000 C   0  0  0  0  0  0  0  0  0  0  0  0
    0.0000    0.0000    0.0000 F   0  0  0  0  0  0  0  0  0  0  0  0
    0.0000    0.0000    0.0000 C   0  0  0  0  0  0  0  0  0  0  0  0
    0.0000    0.0000    0.0000 C   0  0  0  0  0  0  0  0  0  0  0  0
    0.0000    0.0000    0.0000 C   0  0  0  0  0  0  0  0  0  0  0  0
    0.0000    0.0000    0.0000 O   0  0  0  0  0  0  0  0  0  0  0  0
    0.0000    0.0000    0.0000 C   0  0  0  0  0  0  0  0  0  0  0  0
  1  2  1  0
  2  3  2  0
  2  4  2  0
  2  5  1  0
  5  6  2  0
  6  7  1  0
  7  8  2  0
  8  9  1  0
  9 10  1  0
 10 11  2  0
 11 12  1  0
 12 13  2  0
 13 14  1  0
 13 15  1  0
 15 16  1  0
 15 17  2  0
  8 18  1  0
 18 19  1  0
 19 20  1  0
 18 21  2  0
 21  5  1  0
 17 10  1  0
M  END
>  <pIC50>  (411) 
7.1

>  <ChEMBL_ID>  (411) 
CHEMBL1098657

>  <document_journal>  (411) 
Bioorg. Med. Chem.

>  <bao_endpoint>  (411) 
BAO_0000190

>  <potential_duplicate>  (411) 
False

>  <uo_units>  (411) 
UO_0000065

>  <canonical_smiles>  (411) 
NS(=O)(=O)c1cnc(Sc2ccc(F)c(F)c2)c(CO)c1

>  <parent_molecule_chembl_id>  (411) 
CHEMBL1098657

>  <assay_type>  (411) 
B

>  <src_id>  (411) 
1

>  <ligand_efficiency>  (411) 
{u'le': u'0.46', u'bei': u'21.37', u'sei': u'5.59', u'lle': u'5.25'}

>  <standard_flag>  (411) 
True

>  <molecule_chembl_id>  (411) 
CHEMBL1098657

>  <target_organism>  (411) 
Homo sapiens

>  <standard_units>  (411) 
nM

>  <record_id>  (411) 
909912

>  <document_chembl_id>  (411) 
CHEMBL1157929

>  <bao_format>  (411) 
BAO_0000357

>  <data_validity_description>  (411) 
None

>  <activity_id>  (411) 
3295933

>  <standard_type>  (411) 
IC50

>  <target_chembl_id>  (411) 
CHEMBL205

>  <data_validity_comment>  (411) 
None

>  <published_value>  (411) 
79.3

>  <document_year>  (411) 
2010

>  <target_pref_name>  (411) 
Carbonic anhydrase II

>  <assay_chembl_id>  (411) 
CHEMBL1106608

>  <standard_relation>  (411) 
=

>  <assay_description>  (411) 
Inhibition of carbonic anhydrase 2

>  <published_relation>  (411) 
=

>  <standard_value>  (411) 
79.3

>  <qudt_units>  (411) 
http://www.openphacts.org/units/Nanomolar

>  <target_tax_id>  (411) 
9606

>  <bao_label>  (411) 
single protein format

>  <published_units>  (411) 
nM

>  <pchembl_value>  (411) 
7.1

>  <published_type>  (411) 
IC50

>  <activity_comment>  (411) 
None

$$$$

     RDKit          

 30 32  0  0  0  0  0  0  0  0999 V2000
    0.0000    0.0000    0.0000 C   0  0  0  0  0  0  0  0  0  0  0  0
    0.0000    0.0000    0.0000 O   0  0  0  0  0  0  0  0  0  0  0  0
    0.0000    0.0000    0.0000 C   0  0  0  0  0  0  0  0  0  0  0  0
    0.0000    0.0000    0.0000 C   0  0  0  0  0  0  0  0  0  0  0  0
    0.0000    0.0000    0.0000 C   0  0  0  0  0  0  0  0  0  0  0  0
    0.0000    0.0000    0.0000 C   0  0  0  0  0  0  0  0  0  0  0  0
    0.0000    0.0000    0.0000 C   0  0  0  0  0  0  0  0  0  0  0  0
    0.0000    0.0000    0.0000 N   0  0  0  0  0  0  0  0  0  0  0  0
    0.0000    0.0000    0.0000 C   0  0  0  0  0  0  0  0  0  0  0  0
    0.0000    0.0000    0.0000 C   0  0  0  0  0  0  0  0  0  0  0  0
    0.0000    0.0000    0.0000 C   0  0  0  0  0  0  0  0  0  0  0  0
    0.0000    0.0000    0.0000 C   0  0  0  0  0  0  0  0  0  0  0  0
    0.0000    0.0000    0.0000 C   0  0  0  0  0  0  0  0  0  0  0  0
    0.0000    0.0000    0.0000 N   0  0  0  0  0  0  0  0  0  0  0  0
    0.0000    0.0000    0.0000 C   0  0  0  0  0  0  0  0  0  0  0  0
    0.0000    0.0000    0.0000 S   0  0  0  0  0  0  0  0  0  0  0  0
    0.0000    0.0000    0.0000 C   0  0  0  0  0  0  0  0  0  0  0  0
    0.0000    0.0000    0.0000 C   0  0  0  0  0  0  0  0  0  0  0  0
    0.0000    0.0000    0.0000 C   0  0  0  0  0  0  0  0  0  0  0  0
    0.0000    0.0000    0.0000 C   0  0  0  0  0  0  0  0  0  0  0  0
    0.0000    0.0000    0.0000 F   0  0  0  0  0  0  0  0  0  0  0  0
    0.0000    0.0000    0.0000 C   0  0  0  0  0  0  0  0  0  0  0  0
    0.0000    0.0000    0.0000 F   0  0  0  0  0  0  0  0  0  0  0  0
    0.0000    0.0000    0.0000 C   0  0  0  0  0  0  0  0  0  0  0  0
    0.0000    0.0000    0.0000 S   0  0  0  0  0  0  0  0  0  0  0  0
    0.0000    0.0000    0.0000 O   0  0  0  0  0  0  0  0  0  0  0  0
    0.0000    0.0000    0.0000 O   0  0  0  0  0  0  0  0  0  0  0  0
    0.0000    0.0000    0.0000 N   0  0  0  0  0  0  0  0  0  0  0  0
    0.0000    0.0000    0.0000 C   0  0  0  0  0  0  0  0  0  0  0  0
    0.0000    0.0000    0.0000 C   0  0  0  0  0  0  0  0  0  0  0  0
  1  2  1  0
  2  3  1  0
  3  4  2  0
  4  5  1  0
  5  6  2  0
  6  7  1  0
  7  8  1  0
  8  9  1  0
  9 10  1  0
 10 11  2  0
 11 12  1  0
 12 13  2  0
 13 14  1  0
 14 15  2  0
 15 16  1  0
 16 17  1  0
 17 18  2  0
 18 19  1  0
 19 20  2  0
 20 21  1  0
 20 22  1  0
 22 23  1  0
 22 24  2  0
 12 25  1  0
 25 26  2  0
 25 27  2  0
 25 28  1  0
  6 29  1  0
 29 30  2  0
 30  3  1  0
 15 10  1  0
 24 17  1  0
M  END
>  <pIC50>  (412) 
7.28

>  <ChEMBL_ID>  (412) 
CHEMBL1095855

>  <document_journal>  (412) 
Bioorg. Med. Chem.

>  <bao_endpoint>  (412) 
BAO_0000190

>  <potential_duplicate>  (412) 
False

>  <uo_units>  (412) 
UO_0000065

>  <canonical_smiles>  (412) 
COc1ccc(CNCc2cc(cnc2Sc3ccc(F)c(F)c3)S(=O)(=O)N)cc1

>  <parent_molecule_chembl_id>  (412) 
CHEMBL1095855

>  <assay_type>  (412) 
B

>  <src_id>  (412) 
1

>  <ligand_efficiency>  (412) 
{u'le': u'0.33', u'bei': u'16.12', u'sei': u'5.69', u'lle': u'3.72'}

>  <standard_flag>  (412) 
True

>  <molecule_chembl_id>  (412) 
CHEMBL1095855

>  <target_organism>  (412) 
Homo sapiens

>  <standard_units>  (412) 
nM

>  <record_id>  (412) 
909988

>  <document_chembl_id>  (412) 
CHEMBL1157929

>  <bao_format>  (412) 
BAO_0000357

>  <data_validity_description>  (412) 
None

>  <activity_id>  (412) 
3295934

>  <standard_type>  (412) 
IC50

>  <target_chembl_id>  (412) 
CHEMBL205

>  <data_validity_comment>  (412) 
None

>  <published_value>  (412) 
52.8

>  <document_year>  (412) 
2010

>  <target_pref_name>  (412) 
Carbonic anhydrase II

>  <assay_chembl_id>  (412) 
CHEMBL1106608

>  <standard_relation>  (412) 
=

>  <assay_description>  (412) 
Inhibition of carbonic anhydrase 2

>  <published_relation>  (412) 
=

>  <standard_value>  (412) 
52.8

>  <qudt_units>  (412) 
http://www.openphacts.org/units/Nanomolar

>  <target_tax_id>  (412) 
9606

>  <bao_label>  (412) 
single protein format

>  <published_units>  (412) 
nM

>  <pchembl_value>  (412) 
7.28

>  <published_type>  (412) 
IC50

>  <activity_comment>  (412) 
None

$$$$

     RDKit          

 23 24  0  0  0  0  0  0  0  0999 V2000
    0.0000    0.0000    0.0000 C   0  0  0  0  0  0  0  0  0  0  0  0
    0.0000    0.0000    0.0000 C   0  0  0  0  0  0  0  0  0  0  0  0
    0.0000    0.0000    0.0000 N   0  0  0  0  0  0  0  0  0  0  0  0
    0.0000    0.0000    0.0000 C   0  0  0  0  0  0  0  0  0  0  0  0
    0.0000    0.0000    0.0000 C   0  0  0  0  0  0  0  0  0  0  0  0
    0.0000    0.0000    0.0000 C   0  0  0  0  0  0  0  0  0  0  0  0
    0.0000    0.0000    0.0000 C   0  0  0  0  0  0  0  0  0  0  0  0
    0.0000    0.0000    0.0000 C   0  0  0  0  0  0  0  0  0  0  0  0
    0.0000    0.0000    0.0000 N   0  0  0  0  0  0  0  0  0  0  0  0
    0.0000    0.0000    0.0000 C   0  0  0  0  0  0  0  0  0  0  0  0
    0.0000    0.0000    0.0000 S   0  0  0  0  0  0  0  0  0  0  0  0
    0.0000    0.0000    0.0000 C   0  0  0  0  0  0  0  0  0  0  0  0
    0.0000    0.0000    0.0000 C   0  0  0  0  0  0  0  0  0  0  0  0
    0.0000    0.0000    0.0000 C   0  0  0  0  0  0  0  0  0  0  0  0
    0.0000    0.0000    0.0000 C   0  0  0  0  0  0  0  0  0  0  0  0
    0.0000    0.0000    0.0000 F   0  0  0  0  0  0  0  0  0  0  0  0
    0.0000    0.0000    0.0000 C   0  0  0  0  0  0  0  0  0  0  0  0
    0.0000    0.0000    0.0000 F   0  0  0  0  0  0  0  0  0  0  0  0
    0.0000    0.0000    0.0000 C   0  0  0  0  0  0  0  0  0  0  0  0
    0.0000    0.0000    0.0000 S   0  0  0  0  0  0  0  0  0  0  0  0
    0.0000    0.0000    0.0000 O   0  0  0  0  0  0  0  0  0  0  0  0
    0.0000    0.0000    0.0000 O   0  0  0  0  0  0  0  0  0  0  0  0
    0.0000    0.0000    0.0000 N   0  0  0  0  0  0  0  0  0  0  0  0
  1  2  1  0
  2  3  1  0
  3  4  1  0
  4  5  1  0
  5  6  2  0
  6  7  1  0
  7  8  2  0
  8  9  1  0
  9 10  2  0
 10 11  1  0
 11 12  1  0
 12 13  2  0
 13 14  1  0
 14 15  2  0
 15 16  1  0
 15 17  1  0
 17 18  1  0
 17 19  2  0
  7 20  1  0
 20 21  2  0
 20 22  2  0
 20 23  1  0
 10  5  1  0
 19 12  1  0
M  END
>  <pIC50>  (413) 
6.49

>  <ChEMBL_ID>  (413) 
CHEMBL1095856

>  <document_journal>  (413) 
Bioorg. Med. Chem.

>  <bao_endpoint>  (413) 
BAO_0000190

>  <potential_duplicate>  (413) 
False

>  <uo_units>  (413) 
UO_0000065

>  <canonical_smiles>  (413) 
CCNCc1cc(cnc1Sc2ccc(F)c(F)c2)S(=O)(=O)N

>  <parent_molecule_chembl_id>  (413) 
CHEMBL1095856

>  <assay_type>  (413) 
B

>  <src_id>  (413) 
1

>  <ligand_efficiency>  (413) 
{u'le': u'0.39', u'bei': u'18.07', u'sei': u'5.47', u'lle': u'4.15'}

>  <standard_flag>  (413) 
True

>  <molecule_chembl_id>  (413) 
CHEMBL1095856

>  <target_organism>  (413) 
Homo sapiens

>  <standard_units>  (413) 
nM

>  <record_id>  (413) 
909989

>  <document_chembl_id>  (413) 
CHEMBL1157929

>  <bao_format>  (413) 
BAO_0000357

>  <data_validity_description>  (413) 
None

>  <activity_id>  (413) 
3295935

>  <standard_type>  (413) 
IC50

>  <target_chembl_id>  (413) 
CHEMBL205

>  <data_validity_comment>  (413) 
None

>  <published_value>  (413) 
321

>  <document_year>  (413) 
2010

>  <target_pref_name>  (413) 
Carbonic anhydrase II

>  <assay_chembl_id>  (413) 
CHEMBL1106608

>  <standard_relation>  (413) 
=

>  <assay_description>  (413) 
Inhibition of carbonic anhydrase 2

>  <published_relation>  (413) 
=

>  <standard_value>  (413) 
321

>  <qudt_units>  (413) 
http://www.openphacts.org/units/Nanomolar

>  <target_tax_id>  (413) 
9606

>  <bao_label>  (413) 
single protein format

>  <published_units>  (413) 
nM

>  <pchembl_value>  (413) 
6.49

>  <published_type>  (413) 
IC50

>  <activity_comment>  (413) 
None

$$$$

     RDKit          

 26 27  0  0  0  0  0  0  0  0999 V2000
    0.0000    0.0000    0.0000 C   0  0  0  0  0  0  0  0  0  0  0  0
    0.0000    0.0000    0.0000 O   0  0  0  0  0  0  0  0  0  0  0  0
    0.0000    0.0000    0.0000 C   0  0  0  0  0  0  0  0  0  0  0  0
    0.0000    0.0000    0.0000 C   0  0  0  0  0  0  0  0  0  0  0  0
    0.0000    0.0000    0.0000 C   0  0  0  0  0  0  0  0  0  0  0  0
    0.0000    0.0000    0.0000 N   0  0  0  0  0  0  0  0  0  0  0  0
    0.0000    0.0000    0.0000 C   0  0  0  0  0  0  0  0  0  0  0  0
    0.0000    0.0000    0.0000 C   0  0  0  0  0  0  0  0  0  0  0  0
    0.0000    0.0000    0.0000 C   0  0  0  0  0  0  0  0  0  0  0  0
    0.0000    0.0000    0.0000 C   0  0  0  0  0  0  0  0  0  0  0  0
    0.0000    0.0000    0.0000 C   0  0  0  0  0  0  0  0  0  0  0  0
    0.0000    0.0000    0.0000 N   0  0  0  0  0  0  0  0  0  0  0  0
    0.0000    0.0000    0.0000 C   0  0  0  0  0  0  0  0  0  0  0  0
    0.0000    0.0000    0.0000 S   0  0  0  0  0  0  0  0  0  0  0  0
    0.0000    0.0000    0.0000 C   0  0  0  0  0  0  0  0  0  0  0  0
    0.0000    0.0000    0.0000 C   0  0  0  0  0  0  0  0  0  0  0  0
    0.0000    0.0000    0.0000 C   0  0  0  0  0  0  0  0  0  0  0  0
    0.0000    0.0000    0.0000 C   0  0  0  0  0  0  0  0  0  0  0  0
    0.0000    0.0000    0.0000 F   0  0  0  0  0  0  0  0  0  0  0  0
    0.0000    0.0000    0.0000 C   0  0  0  0  0  0  0  0  0  0  0  0
    0.0000    0.0000    0.0000 F   0  0  0  0  0  0  0  0  0  0  0  0
    0.0000    0.0000    0.0000 C   0  0  0  0  0  0  0  0  0  0  0  0
    0.0000    0.0000    0.0000 S   0  0  0  0  0  0  0  0  0  0  0  0
    0.0000    0.0000    0.0000 O   0  0  0  0  0  0  0  0  0  0  0  0
    0.0000    0.0000    0.0000 O   0  0  0  0  0  0  0  0  0  0  0  0
    0.0000    0.0000    0.0000 N   0  0  0  0  0  0  0  0  0  0  0  0
  1  2  1  0
  2  3  1  0
  3  4  1  0
  4  5  1  0
  5  6  1  0
  6  7  1  0
  7  8  1  0
  8  9  2  0
  9 10  1  0
 10 11  2  0
 11 12  1  0
 12 13  2  0
 13 14  1  0
 14 15  1  0
 15 16  2  0
 16 17  1  0
 17 18  2  0
 18 19  1  0
 18 20  1  0
 20 21  1  0
 20 22  2  0
 10 23  1  0
 23 24  2  0
 23 25  2  0
 23 26  1  0
 13  8  1  0
 22 15  1  0
M  END
>  <pIC50>  (414) 
6.41

>  <ChEMBL_ID>  (414) 
CHEMBL1095882

>  <document_journal>  (414) 
Bioorg. Med. Chem.

>  <bao_endpoint>  (414) 
BAO_0000190

>  <potential_duplicate>  (414) 
False

>  <uo_units>  (414) 
UO_0000065

>  <canonical_smiles>  (414) 
COCCCNCc1cc(cnc1Sc2ccc(F)c(F)c2)S(=O)(=O)N

>  <parent_molecule_chembl_id>  (414) 
CHEMBL1095882

>  <assay_type>  (414) 
B

>  <src_id>  (414) 
1

>  <ligand_efficiency>  (414) 
{u'le': u'0.34', u'bei': u'15.9', u'sei': u'5.01', u'lle': u'4.49'}

>  <standard_flag>  (414) 
True

>  <molecule_chembl_id>  (414) 
CHEMBL1095882

>  <target_organism>  (414) 
Homo sapiens

>  <standard_units>  (414) 
nM

>  <record_id>  (414) 
909990

>  <document_chembl_id>  (414) 
CHEMBL1157929

>  <bao_format>  (414) 
BAO_0000357

>  <data_validity_description>  (414) 
None

>  <activity_id>  (414) 
3295936

>  <standard_type>  (414) 
IC50

>  <target_chembl_id>  (414) 
CHEMBL205

>  <data_validity_comment>  (414) 
None

>  <published_value>  (414) 
386

>  <document_year>  (414) 
2010

>  <target_pref_name>  (414) 
Carbonic anhydrase II

>  <assay_chembl_id>  (414) 
CHEMBL1106608

>  <standard_relation>  (414) 
=

>  <assay_description>  (414) 
Inhibition of carbonic anhydrase 2

>  <published_relation>  (414) 
=

>  <standard_value>  (414) 
386

>  <qudt_units>  (414) 
http://www.openphacts.org/units/Nanomolar

>  <target_tax_id>  (414) 
9606

>  <bao_label>  (414) 
single protein format

>  <published_units>  (414) 
nM

>  <pchembl_value>  (414) 
6.41

>  <published_type>  (414) 
IC50

>  <activity_comment>  (414) 
None

$$$$

     RDKit          

 20 20  0  0  0  0  0  0  0  0999 V2000
    0.0000    0.0000    0.0000 C   0  0  0  0  0  0  0  0  0  0  0  0
    0.0000    0.0000    0.0000 C   0  0  0  0  0  0  0  0  0  0  0  0
    0.0000    0.0000    0.0000 N   0  0  0  0  0  0  0  0  0  0  0  0
    0.0000    0.0000    0.0000 C   0  0  0  0  0  0  0  0  0  0  0  0
    0.0000    0.0000    0.0000 O   0  0  0  0  0  0  0  0  0  0  0  0
    0.0000    0.0000    0.0000 C   0  0  0  0  0  0  0  0  0  0  0  0
    0.0000    0.0000    0.0000 C   0  0  0  0  0  0  0  0  0  0  0  0
    0.0000    0.0000    0.0000 C   0  0  0  0  0  0  0  0  0  0  0  0
    0.0000    0.0000    0.0000 C   0  0  0  0  0  0  0  0  0  0  0  0
    0.0000    0.0000    0.0000 C   0  0  0  0  0  0  0  0  0  0  0  0
    0.0000    0.0000    0.0000 F   0  0  0  0  0  0  0  0  0  0  0  0
    0.0000    0.0000    0.0000 C   0  0  0  0  0  0  0  0  0  0  0  0
    0.0000    0.0000    0.0000 S   0  0  0  0  0  0  0  0  0  0  0  0
    0.0000    0.0000    0.0000 C   0  0  0  0  0  0  0  0  0  0  0  0
    0.0000    0.0000    0.0000 C   0  0  0  0  0  0  0  0  0  0  0  0
    0.0000    0.0000    0.0000 C   0  0  0  0  0  0  0  0  0  0  0  0
    0.0000    0.0000    0.0000 S   0  0  0  0  0  0  0  0  0  0  0  0
    0.0000    0.0000    0.0000 O   0  0  0  0  0  0  0  0  0  0  0  0
    0.0000    0.0000    0.0000 O   0  0  0  0  0  0  0  0  0  0  0  0
    0.0000    0.0000    0.0000 N   0  0  0  0  0  0  0  0  0  0  0  0
  1  2  1  0
  2  3  1  0
  3  4  1  0
  4  5  2  0
  4  6  1  0
  6  7  2  0
  7  8  1  0
  8  9  2  0
  9 10  1  0
 10 11  1  0
 10 12  2  0
 12 13  1  0
 13 14  1  0
 14 15  1  0
 14 16  1  0
  8 17  1  0
 17 18  2  0
 17 19  2  0
 17 20  1  0
 12  6  1  0
M  END
>  <pIC50>  (415) 
8.42

>  <ChEMBL_ID>  (415) 
CHEMBL1099003

>  <document_journal>  (415) 
Bioorg. Med. Chem.

>  <bao_endpoint>  (415) 
BAO_0000190

>  <potential_duplicate>  (415) 
False

>  <uo_units>  (415) 
UO_0000065

>  <canonical_smiles>  (415) 
CCNC(=O)c1cc(cc(F)c1SC(C)C)S(=O)(=O)N

>  <parent_molecule_chembl_id>  (415) 
CHEMBL1099003

>  <assay_type>  (415) 
B

>  <src_id>  (415) 
1

>  <ligand_efficiency>  (415) 
{u'le': u'0.58', u'bei': u'26.29', u'sei': u'6.85', u'lle': u'6.85'}

>  <standard_flag>  (415) 
True

>  <molecule_chembl_id>  (415) 
CHEMBL1099003

>  <target_organism>  (415) 
Homo sapiens

>  <standard_units>  (415) 
nM

>  <record_id>  (415) 
909991

>  <document_chembl_id>  (415) 
CHEMBL1157929

>  <bao_format>  (415) 
BAO_0000357

>  <data_validity_description>  (415) 
None

>  <activity_id>  (415) 
3295937

>  <standard_type>  (415) 
IC50

>  <target_chembl_id>  (415) 
CHEMBL205

>  <data_validity_comment>  (415) 
None

>  <published_value>  (415) 
3.77

>  <document_year>  (415) 
2010

>  <target_pref_name>  (415) 
Carbonic anhydrase II

>  <assay_chembl_id>  (415) 
CHEMBL1106608

>  <standard_relation>  (415) 
=

>  <assay_description>  (415) 
Inhibition of carbonic anhydrase 2

>  <published_relation>  (415) 
=

>  <standard_value>  (415) 
3.77

>  <qudt_units>  (415) 
http://www.openphacts.org/units/Nanomolar

>  <target_tax_id>  (415) 
9606

>  <bao_label>  (415) 
single protein format

>  <published_units>  (415) 
nM

>  <pchembl_value>  (415) 
8.42

>  <published_type>  (415) 
IC50

>  <activity_comment>  (415) 
None

$$$$

     RDKit          

 21 21  0  0  0  0  0  0  0  0999 V2000
    0.0000    0.0000    0.0000 C   0  0  0  0  0  0  0  0  0  0  0  0
    0.0000    0.0000    0.0000 C   0  0  0  0  0  0  0  0  0  0  0  0
    0.0000    0.0000    0.0000 N   0  0  0  0  0  0  0  0  0  0  0  0
    0.0000    0.0000    0.0000 C   0  0  0  0  0  0  0  0  0  0  0  0
    0.0000    0.0000    0.0000 O   0  0  0  0  0  0  0  0  0  0  0  0
    0.0000    0.0000    0.0000 C   0  0  0  0  0  0  0  0  0  0  0  0
    0.0000    0.0000    0.0000 C   0  0  0  0  0  0  0  0  0  0  0  0
    0.0000    0.0000    0.0000 C   0  0  0  0  0  0  0  0  0  0  0  0
    0.0000    0.0000    0.0000 C   0  0  0  0  0  0  0  0  0  0  0  0
    0.0000    0.0000    0.0000 C   0  0  0  0  0  0  0  0  0  0  0  0
    0.0000    0.0000    0.0000 F   0  0  0  0  0  0  0  0  0  0  0  0
    0.0000    0.0000    0.0000 C   0  0  0  0  0  0  0  0  0  0  0  0
    0.0000    0.0000    0.0000 S   0  0  0  0  0  0  0  0  0  0  0  0
    0.0000    0.0000    0.0000 C   0  0  0  0  0  0  0  0  0  0  0  0
    0.0000    0.0000    0.0000 C   0  0  0  0  0  0  0  0  0  0  0  0
    0.0000    0.0000    0.0000 C   0  0  0  0  0  0  0  0  0  0  0  0
    0.0000    0.0000    0.0000 C   0  0  0  0  0  0  0  0  0  0  0  0
    0.0000    0.0000    0.0000 S   0  0  0  0  0  0  0  0  0  0  0  0
    0.0000    0.0000    0.0000 O   0  0  0  0  0  0  0  0  0  0  0  0
    0.0000    0.0000    0.0000 O   0  0  0  0  0  0  0  0  0  0  0  0
    0.0000    0.0000    0.0000 N   0  0  0  0  0  0  0  0  0  0  0  0
  1  2  1  0
  2  3  1  0
  3  4  1  0
  4  5  2  0
  4  6  1  0
  6  7  2  0
  7  8  1  0
  8  9  2  0
  9 10  1  0
 10 11  1  0
 10 12  2  0
 12 13  1  0
 13 14  1  0
 14 15  1  0
 15 16  1  0
 15 17  1  0
  8 18  1  0
 18 19  2  0
 18 20  2  0
 18 21  1  0
 12  6  1  0
M  END
>  <pIC50>  (416) 
8.55

>  <ChEMBL_ID>  (416) 
CHEMBL1095883

>  <document_journal>  (416) 
Bioorg. Med. Chem.

>  <bao_endpoint>  (416) 
BAO_0000190

>  <potential_duplicate>  (416) 
False

>  <uo_units>  (416) 
UO_0000065

>  <canonical_smiles>  (416) 
CCNC(=O)c1cc(cc(F)c1SCC(C)C)S(=O)(=O)N

>  <parent_molecule_chembl_id>  (416) 
CHEMBL1095883

>  <assay_type>  (416) 
B

>  <src_id>  (416) 
1

>  <ligand_efficiency>  (416) 
{u'le': u'0.56', u'bei': u'25.58', u'sei': u'6.96', u'lle': u'6.52'}

>  <standard_flag>  (416) 
True

>  <molecule_chembl_id>  (416) 
CHEMBL1095883

>  <target_organism>  (416) 
Homo sapiens

>  <standard_units>  (416) 
nM

>  <record_id>  (416) 
909992

>  <document_chembl_id>  (416) 
CHEMBL1157929

>  <bao_format>  (416) 
BAO_0000357

>  <data_validity_description>  (416) 
None

>  <activity_id>  (416) 
3295938

>  <standard_type>  (416) 
IC50

>  <target_chembl_id>  (416) 
CHEMBL205

>  <data_validity_comment>  (416) 
None

>  <published_value>  (416) 
2.79

>  <document_year>  (416) 
2010

>  <target_pref_name>  (416) 
Carbonic anhydrase II

>  <assay_chembl_id>  (416) 
CHEMBL1106608

>  <standard_relation>  (416) 
=

>  <assay_description>  (416) 
Inhibition of carbonic anhydrase 2

>  <published_relation>  (416) 
=

>  <standard_value>  (416) 
2.79

>  <qudt_units>  (416) 
http://www.openphacts.org/units/Nanomolar

>  <target_tax_id>  (416) 
9606

>  <bao_label>  (416) 
single protein format

>  <published_units>  (416) 
nM

>  <pchembl_value>  (416) 
8.55

>  <published_type>  (416) 
IC50

>  <activity_comment>  (416) 
None

$$$$

     RDKit          

 21 22  0  0  0  0  0  0  0  0999 V2000
    0.0000    0.0000    0.0000 N   0  0  0  0  0  0  0  0  0  0  0  0
    0.0000    0.0000    0.0000 S   0  0  0  0  0  0  0  0  0  0  0  0
    0.0000    0.0000    0.0000 O   0  0  0  0  0  0  0  0  0  0  0  0
    0.0000    0.0000    0.0000 O   0  0  0  0  0  0  0  0  0  0  0  0
    0.0000    0.0000    0.0000 C   0  0  0  0  0  0  0  0  0  0  0  0
    0.0000    0.0000    0.0000 C   0  0  0  0  0  0  0  0  0  0  0  0
    0.0000    0.0000    0.0000 C   0  0  0  0  0  0  0  0  0  0  0  0
    0.0000    0.0000    0.0000 C   0  0  0  0  0  0  0  0  0  0  0  0
    0.0000    0.0000    0.0000 S   0  0  0  0  0  0  0  0  0  0  0  0
    0.0000    0.0000    0.0000 C   0  0  0  0  0  0  0  0  0  0  0  0
    0.0000    0.0000    0.0000 C   0  0  0  0  0  0  0  0  0  0  0  0
    0.0000    0.0000    0.0000 F   0  0  0  0  0  0  0  0  0  0  0  0
    0.0000    0.0000    0.0000 C   0  0  0  0  0  0  0  0  0  0  0  0
    0.0000    0.0000    0.0000 F   0  0  0  0  0  0  0  0  0  0  0  0
    0.0000    0.0000    0.0000 C   0  0  0  0  0  0  0  0  0  0  0  0
    0.0000    0.0000    0.0000 C   0  0  0  0  0  0  0  0  0  0  0  0
    0.0000    0.0000    0.0000 F   0  0  0  0  0  0  0  0  0  0  0  0
    0.0000    0.0000    0.0000 C   0  0  0  0  0  0  0  0  0  0  0  0
    0.0000    0.0000    0.0000 F   0  0  0  0  0  0  0  0  0  0  0  0
    0.0000    0.0000    0.0000 N   0  0  0  0  0  0  0  0  0  0  0  0
    0.0000    0.0000    0.0000 C   0  0  0  0  0  0  0  0  0  0  0  0
  1  2  1  0
  2  3  2  0
  2  4  2  0
  2  5  1  0
  5  6  2  0
  6  7  1  0
  7  8  2  0
  8  9  1  0
  9 10  1  0
 10 11  2  0
 11 12  1  0
 11 13  1  0
 13 14  1  0
 13 15  2  0
 15 16  1  0
 16 17  1  0
 16 18  2  0
 18 19  1  0
  8 20  1  0
 20 21  2  0
 21  5  1  0
 18 10  1  0
M  END
>  <pIC50>  (417) 
8.08

>  <ChEMBL_ID>  (417) 
CHEMBL1095884

>  <document_journal>  (417) 
Bioorg. Med. Chem.

>  <bao_endpoint>  (417) 
BAO_0000190

>  <potential_duplicate>  (417) 
False

>  <uo_units>  (417) 
UO_0000065

>  <canonical_smiles>  (417) 
NS(=O)(=O)c1ccc(Sc2c(F)c(F)cc(F)c2F)nc1

>  <parent_molecule_chembl_id>  (417) 
CHEMBL1095884

>  <assay_type>  (417) 
B

>  <src_id>  (417) 
1

>  <ligand_efficiency>  (417) 
{u'le': u'0.53', u'bei': u'23.89', u'sei': u'7.57', u'lle': u'5.22'}

>  <standard_flag>  (417) 
True

>  <molecule_chembl_id>  (417) 
CHEMBL1095884

>  <target_organism>  (417) 
Homo sapiens

>  <standard_units>  (417) 
nM

>  <record_id>  (417) 
909993

>  <document_chembl_id>  (417) 
CHEMBL1157929

>  <bao_format>  (417) 
BAO_0000357

>  <data_validity_description>  (417) 
None

>  <activity_id>  (417) 
3295939

>  <standard_type>  (417) 
IC50

>  <target_chembl_id>  (417) 
CHEMBL205

>  <data_validity_comment>  (417) 
None

>  <published_value>  (417) 
8.29

>  <document_year>  (417) 
2010

>  <target_pref_name>  (417) 
Carbonic anhydrase II

>  <assay_chembl_id>  (417) 
CHEMBL1106608

>  <standard_relation>  (417) 
=

>  <assay_description>  (417) 
Inhibition of carbonic anhydrase 2

>  <published_relation>  (417) 
=

>  <standard_value>  (417) 
8.29

>  <qudt_units>  (417) 
http://www.openphacts.org/units/Nanomolar

>  <target_tax_id>  (417) 
9606

>  <bao_label>  (417) 
single protein format

>  <published_units>  (417) 
nM

>  <pchembl_value>  (417) 
8.08

>  <published_type>  (417) 
IC50

>  <activity_comment>  (417) 
None

$$$$

     RDKit          

 16 18  0  0  0  0  0  0  0  0999 V2000
    0.0000    0.0000    0.0000 O   0  0  0  0  0  0  0  0  0  0  0  0
    0.0000    0.0000    0.0000 C   0  0  0  0  0  0  0  0  0  0  0  0
    0.0000    0.0000    0.0000 C   0  0  0  0  0  0  0  0  0  0  0  0
    0.0000    0.0000    0.0000 C   0  0  0  0  0  0  0  0  0  0  0  0
    0.0000    0.0000    0.0000 C   0  0  0  0  0  0  0  0  0  0  0  0
    0.0000    0.0000    0.0000 O   0  0  0  0  0  0  0  0  0  0  0  0
    0.0000    0.0000    0.0000 N   0  0  0  0  0  0  0  0  0  0  0  0
    0.0000    0.0000    0.0000 O   0  0  0  0  0  0  0  0  0  0  0  0
    0.0000    0.0000    0.0000 O   0  0  0  0  0  0  0  0  0  0  0  0
    0.0000    0.0000    0.0000 C   0  0  0  0  0  0  0  0  0  0  0  0
    0.0000    0.0000    0.0000 C   0  0  0  0  0  0  0  0  0  0  0  0
    0.0000    0.0000    0.0000 C   0  0  0  0  0  0  0  0  0  0  0  0
    0.0000    0.0000    0.0000 C   0  0  0  0  0  0  0  0  0  0  0  0
    0.0000    0.0000    0.0000 C   0  0  0  0  0  0  0  0  0  0  0  0
    0.0000    0.0000    0.0000 C   0  0  0  0  0  0  0  0  0  0  0  0
    0.0000    0.0000    0.0000 C   0  0  0  0  0  0  0  0  0  0  0  0
  1  2  1  0
  2  3  1  0
  3  4  1  0
  4  5  1  0
  5  6  1  0
  6  7  1  0
  7  8  2  0
  7  9  1  0
  5 10  1  0
 10 11  1  0
 11 12  2  0
 12 13  1  0
 13 14  2  0
 14 15  1  0
 15 16  2  0
 10  2  1  0
 16  3  1  0
 16 11  1  0
M  CHG  2   7   1   9  -1
M  END
>  <pIC50>  (418) 
4.01

>  <ChEMBL_ID>  (418) 
CHEMBL1094528

>  <document_journal>  (418) 
Bioorg. Med. Chem.

>  <bao_endpoint>  (418) 
BAO_0000190

>  <potential_duplicate>  (418) 
False

>  <uo_units>  (418) 
UO_0000065

>  <canonical_smiles>  (418) 
O[C@@H]1C2C[C@@H](O[N+](=O)[O-])C1c3ccccc23

>  <parent_molecule_chembl_id>  (418) 
CHEMBL1094528

>  <assay_type>  (418) 
B

>  <src_id>  (418) 
1

>  <ligand_efficiency>  (418) 
{u'le': u'0.34', u'bei': u'18.12', u'sei': u'5.32', u'lle': u'0.91'}

>  <standard_flag>  (418) 
True

>  <molecule_chembl_id>  (418) 
CHEMBL1094528

>  <target_organism>  (418) 
Homo sapiens

>  <standard_units>  (418) 
nM

>  <record_id>  (418) 
910673

>  <document_chembl_id>  (418) 
CHEMBL1157807

>  <bao_format>  (418) 
BAO_0000357

>  <data_validity_description>  (418) 
None

>  <activity_id>  (418) 
3300126

>  <standard_type>  (418) 
IC50

>  <target_chembl_id>  (418) 
CHEMBL205

>  <data_validity_comment>  (418) 
None

>  <published_value>  (418) 
98.1

>  <document_year>  (418) 
2010

>  <target_pref_name>  (418) 
Carbonic anhydrase II

>  <assay_chembl_id>  (418) 
CHEMBL1114717

>  <standard_relation>  (418) 
=

>  <assay_description>  (418) 
Inhibition of human carbonic anhydrase 2 esterase activity by spectrophotometry

>  <published_relation>  (418) 
=

>  <standard_value>  (418) 
98100

>  <qudt_units>  (418) 
http://www.openphacts.org/units/Nanomolar

>  <target_tax_id>  (418) 
9606

>  <bao_label>  (418) 
single protein format

>  <published_units>  (418) 
uM

>  <pchembl_value>  (418) 
4.01

>  <published_type>  (418) 
I50

>  <activity_comment>  (418) 
None

$$$$

     RDKit          

 16 16  0  0  0  0  0  0  0  0999 V2000
    0.0000    0.0000    0.0000 O   0  0  0  0  0  0  0  0  0  0  0  0
    0.0000    0.0000    0.0000 C   0  0  0  0  0  0  0  0  0  0  0  0
    0.0000    0.0000    0.0000 C   0  0  0  0  0  0  0  0  0  0  0  0
    0.0000    0.0000    0.0000 C   0  0  0  0  0  0  0  0  0  0  0  0
    0.0000    0.0000    0.0000 O   0  0  0  0  0  0  0  0  0  0  0  0
    0.0000    0.0000    0.0000 C   0  0  0  0  0  0  0  0  0  0  0  0
    0.0000    0.0000    0.0000 C   0  0  0  0  0  0  0  0  0  0  0  0
    0.0000    0.0000    0.0000 C   0  0  0  0  0  0  0  0  0  0  0  0
    0.0000    0.0000    0.0000 O   0  0  0  0  0  0  0  0  0  0  0  0
    0.0000    0.0000    0.0000 N   0  0  0  0  0  0  0  0  0  0  0  0
    0.0000    0.0000    0.0000 O   0  0  0  0  0  0  0  0  0  0  0  0
    0.0000    0.0000    0.0000 O   0  0  0  0  0  0  0  0  0  0  0  0
    0.0000    0.0000    0.0000 O   0  0  0  0  0  0  0  0  0  0  0  0
    0.0000    0.0000    0.0000 N   0  0  0  0  0  0  0  0  0  0  0  0
    0.0000    0.0000    0.0000 O   0  0  0  0  0  0  0  0  0  0  0  0
    0.0000    0.0000    0.0000 O   0  0  0  0  0  0  0  0  0  0  0  0
  1  2  1  0
  2  3  1  0
  3  4  1  0
  4  5  1  0
  4  6  1  0
  6  7  1  0
  7  8  1  0
  8  9  1  0
  9 10  1  0
 10 11  2  0
 10 12  1  0
  6 13  1  0
 13 14  1  0
 14 15  2  0
 14 16  1  0
  8  2  1  0
M  CHG  4  10   1  12  -1  14   1  16  -1
M  END
>  <pIC50>  (419) 
4.06

>  <ChEMBL_ID>  (419) 
CHEMBL1094530

>  <document_journal>  (419) 
Bioorg. Med. Chem.

>  <bao_endpoint>  (419) 
BAO_0000190

>  <potential_duplicate>  (419) 
False

>  <uo_units>  (419) 
UO_0000065

>  <canonical_smiles>  (419) 
O[C@H]1C[C@H](O)[C@H](C[C@@H]1O[N+](=O)[O-])O[N+](=O)[O-]

>  <parent_molecule_chembl_id>  (419) 
CHEMBL1094530

>  <assay_type>  (419) 
B

>  <src_id>  (419) 
1

>  <ligand_efficiency>  (419) 
{u'le': u'0.35', u'bei': u'17.06', u'sei': u'2.7', u'lle': u'1.16'}

>  <standard_flag>  (419) 
True

>  <molecule_chembl_id>  (419) 
CHEMBL1094530

>  <target_organism>  (419) 
Homo sapiens

>  <standard_units>  (419) 
nM

>  <record_id>  (419) 
910675

>  <document_chembl_id>  (419) 
CHEMBL1157807

>  <bao_format>  (419) 
BAO_0000357

>  <data_validity_description>  (419) 
None

>  <activity_id>  (419) 
3300128

>  <standard_type>  (419) 
IC50

>  <target_chembl_id>  (419) 
CHEMBL205

>  <data_validity_comment>  (419) 
None

>  <published_value>  (419) 
86.3

>  <document_year>  (419) 
2010

>  <target_pref_name>  (419) 
Carbonic anhydrase II

>  <assay_chembl_id>  (419) 
CHEMBL1114717

>  <standard_relation>  (419) 
=

>  <assay_description>  (419) 
Inhibition of human carbonic anhydrase 2 esterase activity by spectrophotometry

>  <published_relation>  (419) 
=

>  <standard_value>  (419) 
86300

>  <qudt_units>  (419) 
http://www.openphacts.org/units/Nanomolar

>  <target_tax_id>  (419) 
9606

>  <bao_label>  (419) 
single protein format

>  <published_units>  (419) 
uM

>  <pchembl_value>  (419) 
4.06

>  <published_type>  (419) 
I50

>  <activity_comment>  (419) 
None

$$$$

     RDKit          

 12 13  0  0  0  0  0  0  0  0999 V2000
    0.0000    0.0000    0.0000 O   0  0  0  0  0  0  0  0  0  0  0  0
    0.0000    0.0000    0.0000 C   0  0  0  0  0  0  0  0  0  0  0  0
    0.0000    0.0000    0.0000 C   0  0  0  0  0  0  0  0  0  0  0  0
    0.0000    0.0000    0.0000 C   0  0  0  0  0  0  0  0  0  0  0  0
    0.0000    0.0000    0.0000 C   0  0  0  0  0  0  0  0  0  0  0  0
    0.0000    0.0000    0.0000 C   0  0  0  0  0  0  0  0  0  0  0  0
    0.0000    0.0000    0.0000 C   0  0  0  0  0  0  0  0  0  0  0  0
    0.0000    0.0000    0.0000 C   0  0  0  0  0  0  0  0  0  0  0  0
    0.0000    0.0000    0.0000 O   0  0  0  0  0  0  0  0  0  0  0  0
    0.0000    0.0000    0.0000 N   0  0  0  0  0  0  0  0  0  0  0  0
    0.0000    0.0000    0.0000 O   0  0  0  0  0  0  0  0  0  0  0  0
    0.0000    0.0000    0.0000 O   0  0  0  0  0  0  0  0  0  0  0  0
  1  2  1  0
  2  3  1  0
  3  4  1  0
  4  5  1  0
  5  6  1  0
  6  7  1  0
  7  8  1  0
  7  9  1  0
  9 10  1  0
 10 11  2  0
 10 12  1  0
  6  2  1  0
  8  3  1  0
M  CHG  2  10   1  12  -1
M  END
>  <pIC50>  (420) 
4.14

>  <ChEMBL_ID>  (420) 
CHEMBL1094856

>  <document_journal>  (420) 
Bioorg. Med. Chem.

>  <bao_endpoint>  (420) 
BAO_0000190

>  <potential_duplicate>  (420) 
False

>  <uo_units>  (420) 
UO_0000065

>  <canonical_smiles>  (420) 
O[C@@H]1C2CCC1[C@H](C2)O[N+](=O)[O-]

>  <parent_molecule_chembl_id>  (420) 
CHEMBL1094856

>  <assay_type>  (420) 
B

>  <src_id>  (420) 
1

>  <ligand_efficiency>  (420) 
{u'le': u'0.47', u'bei': u'23.88', u'sei': u'5.49', u'lle': u'1.65'}

>  <standard_flag>  (420) 
True

>  <molecule_chembl_id>  (420) 
CHEMBL1094856

>  <target_organism>  (420) 
Homo sapiens

>  <standard_units>  (420) 
nM

>  <record_id>  (420) 
910677

>  <document_chembl_id>  (420) 
CHEMBL1157807

>  <bao_format>  (420) 
BAO_0000357

>  <data_validity_description>  (420) 
None

>  <activity_id>  (420) 
3300130

>  <standard_type>  (420) 
IC50

>  <target_chembl_id>  (420) 
CHEMBL205

>  <data_validity_comment>  (420) 
None

>  <published_value>  (420) 
73.1

>  <document_year>  (420) 
2010

>  <target_pref_name>  (420) 
Carbonic anhydrase II

>  <assay_chembl_id>  (420) 
CHEMBL1114717

>  <standard_relation>  (420) 
=

>  <assay_description>  (420) 
Inhibition of human carbonic anhydrase 2 esterase activity by spectrophotometry

>  <published_relation>  (420) 
=

>  <standard_value>  (420) 
73100

>  <qudt_units>  (420) 
http://www.openphacts.org/units/Nanomolar

>  <target_tax_id>  (420) 
9606

>  <bao_label>  (420) 
single protein format

>  <published_units>  (420) 
uM

>  <pchembl_value>  (420) 
4.14

>  <published_type>  (420) 
I50

>  <activity_comment>  (420) 
None

$$$$

     RDKit          

 12 13  0  0  0  0  0  0  0  0999 V2000
    0.0000    0.0000    0.0000 O   0  0  0  0  0  0  0  0  0  0  0  0
    0.0000    0.0000    0.0000 C   0  0  0  0  0  0  0  0  0  0  0  0
    0.0000    0.0000    0.0000 C   0  0  0  0  0  0  0  0  0  0  0  0
    0.0000    0.0000    0.0000 C   0  0  0  0  0  0  0  0  0  0  0  0
    0.0000    0.0000    0.0000 C   0  0  0  0  0  0  0  0  0  0  0  0
    0.0000    0.0000    0.0000 C   0  0  0  0  0  0  0  0  0  0  0  0
    0.0000    0.0000    0.0000 C   0  0  0  0  0  0  0  0  0  0  0  0
    0.0000    0.0000    0.0000 C   0  0  0  0  0  0  0  0  0  0  0  0
    0.0000    0.0000    0.0000 O   0  0  0  0  0  0  0  0  0  0  0  0
    0.0000    0.0000    0.0000 N   0  0  0  0  0  0  0  0  0  0  0  0
    0.0000    0.0000    0.0000 O   0  0  0  0  0  0  0  0  0  0  0  0
    0.0000    0.0000    0.0000 O   0  0  0  0  0  0  0  0  0  0  0  0
  1  2  1  0
  2  3  1  0
  3  4  1  0
  4  5  1  0
  5  6  1  0
  6  7  1  0
  7  8  1  0
  7  9  1  0
  9 10  1  0
 10 11  2  0
 10 12  1  0
  6  2  1  0
  8  3  1  0
M  CHG  2  10   1  12  -1
M  END
>  <pIC50>  (421) 
4.19

>  <ChEMBL_ID>  (421) 
CHEMBL1094857

>  <document_journal>  (421) 
Bioorg. Med. Chem.

>  <bao_endpoint>  (421) 
BAO_0000190

>  <potential_duplicate>  (421) 
False

>  <uo_units>  (421) 
UO_0000065

>  <canonical_smiles>  (421) 
O[C@@H]1C2CCC1[C@@H](C2)O[N+](=O)[O-]

>  <parent_molecule_chembl_id>  (421) 
CHEMBL1094857

>  <assay_type>  (421) 
B

>  <src_id>  (421) 
1

>  <ligand_efficiency>  (421) 
{u'le': u'0.48', u'bei': u'24.18', u'sei': u'5.56', u'lle': u'1.7'}

>  <standard_flag>  (421) 
True

>  <molecule_chembl_id>  (421) 
CHEMBL1094857

>  <target_organism>  (421) 
Homo sapiens

>  <standard_units>  (421) 
nM

>  <record_id>  (421) 
910678

>  <document_chembl_id>  (421) 
CHEMBL1157807

>  <bao_format>  (421) 
BAO_0000357

>  <data_validity_description>  (421) 
None

>  <activity_id>  (421) 
3300131

>  <standard_type>  (421) 
IC50

>  <target_chembl_id>  (421) 
CHEMBL205

>  <data_validity_comment>  (421) 
None

>  <published_value>  (421) 
65.1

>  <document_year>  (421) 
2010

>  <target_pref_name>  (421) 
Carbonic anhydrase II

>  <assay_chembl_id>  (421) 
CHEMBL1114717

>  <standard_relation>  (421) 
=

>  <assay_description>  (421) 
Inhibition of human carbonic anhydrase 2 esterase activity by spectrophotometry

>  <published_relation>  (421) 
=

>  <standard_value>  (421) 
65100

>  <qudt_units>  (421) 
http://www.openphacts.org/units/Nanomolar

>  <target_tax_id>  (421) 
9606

>  <bao_label>  (421) 
single protein format

>  <published_units>  (421) 
uM

>  <pchembl_value>  (421) 
4.19

>  <published_type>  (421) 
I50

>  <activity_comment>  (421) 
None

$$$$

     RDKit          

 15 16  0  0  0  0  0  0  0  0999 V2000
    0.0000    0.0000    0.0000 C   0  0  0  0  0  0  0  0  0  0  0  0
    0.0000    0.0000    0.0000 C   0  0  0  0  0  0  0  0  0  0  0  0
    0.0000    0.0000    0.0000 C   0  0  0  0  0  0  0  0  0  0  0  0
    0.0000    0.0000    0.0000 C   0  0  0  0  0  0  0  0  0  0  0  0
    0.0000    0.0000    0.0000 C   0  0  0  0  0  0  0  0  0  0  0  0
    0.0000    0.0000    0.0000 C   0  0  0  0  0  0  0  0  0  0  0  0
    0.0000    0.0000    0.0000 C   0  0  0  0  0  0  0  0  0  0  0  0
    0.0000    0.0000    0.0000 S   0  0  0  0  0  0  0  0  0  0  0  0
    0.0000    0.0000    0.0000 O   0  0  0  0  0  0  0  0  0  0  0  0
    0.0000    0.0000    0.0000 O   0  0  0  0  0  0  0  0  0  0  0  0
    0.0000    0.0000    0.0000 N   0  0  0  0  0  0  0  0  0  0  0  0
    0.0000    0.0000    0.0000 C   0  0  0  0  0  0  0  0  0  0  0  0
    0.0000    0.0000    0.0000 C   0  0  0  0  0  0  0  0  0  0  0  0
    0.0000    0.0000    0.0000 C   0  0  0  0  0  0  0  0  0  0  0  0
    0.0000    0.0000    0.0000 C   0  0  0  0  0  0  0  0  0  0  0  0
  1  2  1  0
  2  3  2  0
  3  4  1  0
  4  5  2  0
  5  6  1  0
  6  7  2  0
  5  8  1  0
  8  9  2  0
  8 10  2  0
  8 11  1  0
 11 12  1  0
 12 13  2  0
 13 14  1  0
 14 15  2  0
  7  2  1  0
 15 11  1  0
M  END
>  <pIC50>  (422) 
4.64

>  <ChEMBL_ID>  (422) 
CHEMBL508732

>  <document_journal>  (422) 
Bioorg. Med. Chem.

>  <bao_endpoint>  (422) 
BAO_0000190

>  <potential_duplicate>  (422) 
False

>  <uo_units>  (422) 
UO_0000065

>  <canonical_smiles>  (422) 
Cc1ccc(cc1)S(=O)(=O)n2cccc2

>  <parent_molecule_chembl_id>  (422) 
CHEMBL508732

>  <assay_type>  (422) 
B

>  <src_id>  (422) 
1

>  <ligand_efficiency>  (422) 
{u'le': u'0.42', u'bei': u'20.95', u'sei': u'9.77', u'lle': u'1.87'}

>  <standard_flag>  (422) 
True

>  <molecule_chembl_id>  (422) 
CHEMBL508732

>  <target_organism>  (422) 
Homo sapiens

>  <standard_units>  (422) 
nM

>  <record_id>  (422) 
917832

>  <document_chembl_id>  (422) 
CHEMBL1166009

>  <bao_format>  (422) 
BAO_0000357

>  <data_validity_description>  (422) 
None

>  <activity_id>  (422) 
3330885

>  <standard_type>  (422) 
IC50

>  <target_chembl_id>  (422) 
CHEMBL205

>  <data_validity_comment>  (422) 
None

>  <published_value>  (422) 
23.14

>  <document_year>  (422) 
2010

>  <target_pref_name>  (422) 
Carbonic anhydrase II

>  <assay_chembl_id>  (422) 
CHEMBL1167750

>  <standard_relation>  (422) 
=

>  <assay_description>  (422) 
Inhibition of esterase activity of human carbonic anhydrase 1 by spectrophotometry

>  <published_relation>  (422) 
=

>  <standard_value>  (422) 
23140

>  <qudt_units>  (422) 
http://www.openphacts.org/units/Nanomolar

>  <target_tax_id>  (422) 
9606

>  <bao_label>  (422) 
single protein format

>  <published_units>  (422) 
uM

>  <pchembl_value>  (422) 
4.64

>  <published_type>  (422) 
I50

>  <activity_comment>  (422) 
None

$$$$

     RDKit          

 16 17  0  0  0  0  0  0  0  0999 V2000
    0.0000    0.0000    0.0000 C   0  0  0  0  0  0  0  0  0  0  0  0
    0.0000    0.0000    0.0000 C   0  0  0  0  0  0  0  0  0  0  0  0
    0.0000    0.0000    0.0000 C   0  0  0  0  0  0  0  0  0  0  0  0
    0.0000    0.0000    0.0000 C   0  0  0  0  0  0  0  0  0  0  0  0
    0.0000    0.0000    0.0000 C   0  0  0  0  0  0  0  0  0  0  0  0
    0.0000    0.0000    0.0000 C   0  0  0  0  0  0  0  0  0  0  0  0
    0.0000    0.0000    0.0000 C   0  0  0  0  0  0  0  0  0  0  0  0
    0.0000    0.0000    0.0000 S   0  0  0  0  0  0  0  0  0  0  0  0
    0.0000    0.0000    0.0000 O   0  0  0  0  0  0  0  0  0  0  0  0
    0.0000    0.0000    0.0000 O   0  0  0  0  0  0  0  0  0  0  0  0
    0.0000    0.0000    0.0000 N   0  0  0  0  0  0  0  0  0  0  0  0
    0.0000    0.0000    0.0000 C   0  0  0  0  0  0  0  0  0  0  0  0
    0.0000    0.0000    0.0000 C   0  0  0  0  0  0  0  0  0  0  0  0
    0.0000    0.0000    0.0000 C   0  0  0  0  0  0  0  0  0  0  0  0
    0.0000    0.0000    0.0000 C   0  0  0  0  0  0  0  0  0  0  0  0
    0.0000    0.0000    0.0000 O   0  0  0  0  0  0  0  0  0  0  0  0
  1  2  1  0
  2  3  2  0
  3  4  1  0
  4  5  2  0
  5  6  1  0
  6  7  2  0
  5  8  1  0
  8  9  2  0
  8 10  2  0
  8 11  1  0
 11 12  1  0
 12 13  1  0
 13 14  2  0
 14 15  1  0
 15 16  2  0
  7  2  1  0
 15 11  1  0
M  END
>  <pIC50>  (423) 
4.74

>  <ChEMBL_ID>  (423) 
CHEMBL1163131

>  <document_journal>  (423) 
Bioorg. Med. Chem.

>  <bao_endpoint>  (423) 
BAO_0000190

>  <potential_duplicate>  (423) 
False

>  <uo_units>  (423) 
UO_0000065

>  <canonical_smiles>  (423) 
Cc1ccc(cc1)S(=O)(=O)N2CC=CC2=O

>  <parent_molecule_chembl_id>  (423) 
CHEMBL1163131

>  <assay_type>  (423) 
B

>  <src_id>  (423) 
1

>  <ligand_efficiency>  (423) 
{u'le': u'0.4', u'bei': u'19.98', u'sei': u'7.54', u'lle': u'3.16'}

>  <standard_flag>  (423) 
True

>  <molecule_chembl_id>  (423) 
CHEMBL1163131

>  <target_organism>  (423) 
Homo sapiens

>  <standard_units>  (423) 
nM

>  <record_id>  (423) 
917833

>  <document_chembl_id>  (423) 
CHEMBL1166009

>  <bao_format>  (423) 
BAO_0000357

>  <data_validity_description>  (423) 
None

>  <activity_id>  (423) 
3330886

>  <standard_type>  (423) 
IC50

>  <target_chembl_id>  (423) 
CHEMBL205

>  <data_validity_comment>  (423) 
None

>  <published_value>  (423) 
18.18

>  <document_year>  (423) 
2010

>  <target_pref_name>  (423) 
Carbonic anhydrase II

>  <assay_chembl_id>  (423) 
CHEMBL1167750

>  <standard_relation>  (423) 
=

>  <assay_description>  (423) 
Inhibition of esterase activity of human carbonic anhydrase 1 by spectrophotometry

>  <published_relation>  (423) 
=

>  <standard_value>  (423) 
18180

>  <qudt_units>  (423) 
http://www.openphacts.org/units/Nanomolar

>  <target_tax_id>  (423) 
9606

>  <bao_label>  (423) 
single protein format

>  <published_units>  (423) 
uM

>  <pchembl_value>  (423) 
4.74

>  <published_type>  (423) 
I50

>  <activity_comment>  (423) 
None

$$$$

     RDKit          

 17 18  0  0  0  0  0  0  0  0999 V2000
    0.0000    0.0000    0.0000 C   0  0  0  0  0  0  0  0  0  0  0  0
    0.0000    0.0000    0.0000 C   0  0  0  0  0  0  0  0  0  0  0  0
    0.0000    0.0000    0.0000 C   0  0  0  0  0  0  0  0  0  0  0  0
    0.0000    0.0000    0.0000 C   0  0  0  0  0  0  0  0  0  0  0  0
    0.0000    0.0000    0.0000 C   0  0  0  0  0  0  0  0  0  0  0  0
    0.0000    0.0000    0.0000 C   0  0  0  0  0  0  0  0  0  0  0  0
    0.0000    0.0000    0.0000 C   0  0  0  0  0  0  0  0  0  0  0  0
    0.0000    0.0000    0.0000 S   0  0  0  0  0  0  0  0  0  0  0  0
    0.0000    0.0000    0.0000 O   0  0  0  0  0  0  0  0  0  0  0  0
    0.0000    0.0000    0.0000 O   0  0  0  0  0  0  0  0  0  0  0  0
    0.0000    0.0000    0.0000 N   0  0  0  0  0  0  0  0  0  0  0  0
    0.0000    0.0000    0.0000 C   0  0  0  0  0  0  0  0  0  0  0  0
    0.0000    0.0000    0.0000 O   0  0  0  0  0  0  0  0  0  0  0  0
    0.0000    0.0000    0.0000 C   0  0  0  0  0  0  0  0  0  0  0  0
    0.0000    0.0000    0.0000 C   0  0  0  0  0  0  0  0  0  0  0  0
    0.0000    0.0000    0.0000 C   0  0  0  0  0  0  0  0  0  0  0  0
    0.0000    0.0000    0.0000 O   0  0  0  0  0  0  0  0  0  0  0  0
  1  2  1  0
  2  3  2  0
  3  4  1  0
  4  5  2  0
  5  6  1  0
  6  7  2  0
  5  8  1  0
  8  9  2  0
  8 10  2  0
  8 11  1  0
 11 12  1  0
 12 13  1  0
 12 14  1  0
 14 15  2  0
 15 16  1  0
 16 17  2  0
  7  2  1  0
 16 11  1  0
M  END
>  <pIC50>  (424) 
5.22

>  <ChEMBL_ID>  (424) 
CHEMBL1163554

>  <document_journal>  (424) 
Bioorg. Med. Chem.

>  <bao_endpoint>  (424) 
BAO_0000190

>  <potential_duplicate>  (424) 
False

>  <uo_units>  (424) 
UO_0000065

>  <canonical_smiles>  (424) 
Cc1ccc(cc1)S(=O)(=O)N2C(O)C=CC2=O

>  <parent_molecule_chembl_id>  (424) 
CHEMBL1163554

>  <assay_type>  (424) 
B

>  <src_id>  (424) 
1

>  <ligand_efficiency>  (424) 
{u'le': u'0.42', u'bei': u'20.61', u'sei': u'6.28', u'lle': u'3.98'}

>  <standard_flag>  (424) 
True

>  <molecule_chembl_id>  (424) 
CHEMBL1163554

>  <target_organism>  (424) 
Homo sapiens

>  <standard_units>  (424) 
nM

>  <record_id>  (424) 
917834

>  <document_chembl_id>  (424) 
CHEMBL1166009

>  <bao_format>  (424) 
BAO_0000357

>  <data_validity_description>  (424) 
None

>  <activity_id>  (424) 
3330887

>  <standard_type>  (424) 
IC50

>  <target_chembl_id>  (424) 
CHEMBL205

>  <data_validity_comment>  (424) 
None

>  <published_value>  (424) 
6.03

>  <document_year>  (424) 
2010

>  <target_pref_name>  (424) 
Carbonic anhydrase II

>  <assay_chembl_id>  (424) 
CHEMBL1167750

>  <standard_relation>  (424) 
=

>  <assay_description>  (424) 
Inhibition of esterase activity of human carbonic anhydrase 1 by spectrophotometry

>  <published_relation>  (424) 
=

>  <standard_value>  (424) 
6030

>  <qudt_units>  (424) 
http://www.openphacts.org/units/Nanomolar

>  <target_tax_id>  (424) 
9606

>  <bao_label>  (424) 
single protein format

>  <published_units>  (424) 
uM

>  <pchembl_value>  (424) 
5.22

>  <published_type>  (424) 
I50

>  <activity_comment>  (424) 
None

$$$$

     RDKit          

 20 21  0  0  0  0  0  0  0  0999 V2000
    0.0000    0.0000    0.0000 C   0  0  0  0  0  0  0  0  0  0  0  0
    0.0000    0.0000    0.0000 C   0  0  0  0  0  0  0  0  0  0  0  0
    0.0000    0.0000    0.0000 O   0  0  0  0  0  0  0  0  0  0  0  0
    0.0000    0.0000    0.0000 O   0  0  0  0  0  0  0  0  0  0  0  0
    0.0000    0.0000    0.0000 C   0  0  0  0  0  0  0  0  0  0  0  0
    0.0000    0.0000    0.0000 C   0  0  0  0  0  0  0  0  0  0  0  0
    0.0000    0.0000    0.0000 C   0  0  0  0  0  0  0  0  0  0  0  0
    0.0000    0.0000    0.0000 C   0  0  0  0  0  0  0  0  0  0  0  0
    0.0000    0.0000    0.0000 O   0  0  0  0  0  0  0  0  0  0  0  0
    0.0000    0.0000    0.0000 N   0  0  0  0  0  0  0  0  0  0  0  0
    0.0000    0.0000    0.0000 S   0  0  0  0  0  0  0  0  0  0  0  0
    0.0000    0.0000    0.0000 O   0  0  0  0  0  0  0  0  0  0  0  0
    0.0000    0.0000    0.0000 O   0  0  0  0  0  0  0  0  0  0  0  0
    0.0000    0.0000    0.0000 C   0  0  0  0  0  0  0  0  0  0  0  0
    0.0000    0.0000    0.0000 C   0  0  0  0  0  0  0  0  0  0  0  0
    0.0000    0.0000    0.0000 C   0  0  0  0  0  0  0  0  0  0  0  0
    0.0000    0.0000    0.0000 C   0  0  0  0  0  0  0  0  0  0  0  0
    0.0000    0.0000    0.0000 C   0  0  0  0  0  0  0  0  0  0  0  0
    0.0000    0.0000    0.0000 C   0  0  0  0  0  0  0  0  0  0  0  0
    0.0000    0.0000    0.0000 C   0  0  0  0  0  0  0  0  0  0  0  0
  1  2  1  0
  2  3  2  0
  2  4  1  0
  4  5  1  0
  5  6  1  0
  6  7  2  0
  7  8  1  0
  8  9  2  0
  8 10  1  0
 10 11  1  0
 11 12  2  0
 11 13  2  0
 11 14  1  0
 14 15  2  0
 15 16  1  0
 16 17  2  0
 17 18  1  0
 17 19  1  0
 19 20  2  0
 10  5  1  0
 20 14  1  0
M  END
>  <pIC50>  (425) 
5.1

>  <ChEMBL_ID>  (425) 
CHEMBL1164744

>  <document_journal>  (425) 
Bioorg. Med. Chem.

>  <bao_endpoint>  (425) 
BAO_0000190

>  <potential_duplicate>  (425) 
False

>  <uo_units>  (425) 
UO_0000065

>  <canonical_smiles>  (425) 
CC(=O)OC1C=CC(=O)N1S(=O)(=O)c2ccc(C)cc2

>  <parent_molecule_chembl_id>  (425) 
CHEMBL1164744

>  <assay_type>  (425) 
B

>  <src_id>  (425) 
1

>  <ligand_efficiency>  (425) 
{u'le': u'0.35', u'bei': u'17.27', u'sei': u'5.72', u'lle': u'3.48'}

>  <standard_flag>  (425) 
True

>  <molecule_chembl_id>  (425) 
CHEMBL1164744

>  <target_organism>  (425) 
Homo sapiens

>  <standard_units>  (425) 
nM

>  <record_id>  (425) 
917835

>  <document_chembl_id>  (425) 
CHEMBL1166009

>  <bao_format>  (425) 
BAO_0000357

>  <data_validity_description>  (425) 
None

>  <activity_id>  (425) 
3330888

>  <standard_type>  (425) 
IC50

>  <target_chembl_id>  (425) 
CHEMBL205

>  <data_validity_comment>  (425) 
None

>  <published_value>  (425) 
7.97

>  <document_year>  (425) 
2010

>  <target_pref_name>  (425) 
Carbonic anhydrase II

>  <assay_chembl_id>  (425) 
CHEMBL1167750

>  <standard_relation>  (425) 
=

>  <assay_description>  (425) 
Inhibition of esterase activity of human carbonic anhydrase 1 by spectrophotometry

>  <published_relation>  (425) 
=

>  <standard_value>  (425) 
7970

>  <qudt_units>  (425) 
http://www.openphacts.org/units/Nanomolar

>  <target_tax_id>  (425) 
9606

>  <bao_label>  (425) 
single protein format

>  <published_units>  (425) 
uM

>  <pchembl_value>  (425) 
5.1

>  <published_type>  (425) 
I50

>  <activity_comment>  (425) 
None

$$$$

     RDKit          

 14 14  0  0  0  0  0  0  0  0999 V2000
    0.0000    0.0000    0.0000 O   0  0  0  0  0  0  0  0  0  0  0  0
    0.0000    0.0000    0.0000 P   0  0  0  0  0  0  0  0  0  0  0  0
    0.0000    0.0000    0.0000 O   0  0  0  0  0  0  0  0  0  0  0  0
    0.0000    0.0000    0.0000 O   0  0  0  0  0  0  0  0  0  0  0  0
    0.0000    0.0000    0.0000 O   0  0  0  0  0  0  0  0  0  0  0  0
    0.0000    0.0000    0.0000 C   0  0  0  0  0  0  0  0  0  0  0  0
    0.0000    0.0000    0.0000 C   0  0  0  0  0  0  0  0  0  0  0  0
    0.0000    0.0000    0.0000 C   0  0  0  0  0  0  0  0  0  0  0  0
    0.0000    0.0000    0.0000 C   0  0  0  0  0  0  0  0  0  0  0  0
    0.0000    0.0000    0.0000 C   0  0  0  0  0  0  0  0  0  0  0  0
    0.0000    0.0000    0.0000 C   0  0  0  0  0  0  0  0  0  0  0  0
    0.0000    0.0000    0.0000 N   0  0  0  0  0  0  0  0  0  0  0  0
    0.0000    0.0000    0.0000 O   0  0  0  0  0  0  0  0  0  0  0  0
    0.0000    0.0000    0.0000 O   0  0  0  0  0  0  0  0  0  0  0  0
  1  2  1  0
  2  3  2  0
  2  4  1  0
  2  5  1  0
  5  6  1  0
  6  7  2  0
  7  8  1  0
  8  9  2  0
  9 10  1  0
 10 11  2  0
  9 12  1  0
 12 13  2  0
 12 14  1  0
 11  6  1  0
M  CHG  2  12   1  14  -1
M  END
>  <pIC50>  (426) 
7.2

>  <ChEMBL_ID>  (426) 
CHEMBL24231

>  <document_journal>  (426) 
Bioorg. Med. Chem. Lett.

>  <bao_endpoint>  (426) 
BAO_0000190

>  <potential_duplicate>  (426) 
False

>  <uo_units>  (426) 
UO_0000065

>  <canonical_smiles>  (426) 
OP(=O)(O)Oc1ccc(cc1)[N+](=O)[O-]

>  <parent_molecule_chembl_id>  (426) 
CHEMBL24231

>  <assay_type>  (426) 
B

>  <src_id>  (426) 
1

>  <ligand_efficiency>  (426) 
{u'le': u'0.7', u'bei': u'32.87', u'sei': u'5.88', u'lle': u'5.97'}

>  <standard_flag>  (426) 
True

>  <molecule_chembl_id>  (426) 
CHEMBL24231

>  <target_organism>  (426) 
Homo sapiens

>  <standard_units>  (426) 
nM

>  <record_id>  (426) 
965063

>  <document_chembl_id>  (426) 
CHEMBL1268884

>  <bao_format>  (426) 
BAO_0000357

>  <data_validity_description>  (426) 
None

>  <activity_id>  (426) 
3516089

>  <standard_type>  (426) 
IC50

>  <target_chembl_id>  (426) 
CHEMBL205

>  <data_validity_comment>  (426) 
None

>  <published_value>  (426) 
63

>  <document_year>  (426) 
2010

>  <target_pref_name>  (426) 
Carbonic anhydrase II

>  <assay_chembl_id>  (426) 
CHEMBL1274991

>  <standard_relation>  (426) 
=

>  <assay_description>  (426) 
Inhibition of esterase activity of human carbonic anhydrase 2 by CO2 hydration method

>  <published_relation>  (426) 
=

>  <standard_value>  (426) 
63

>  <qudt_units>  (426) 
http://www.openphacts.org/units/Nanomolar

>  <target_tax_id>  (426) 
9606

>  <bao_label>  (426) 
single protein format

>  <published_units>  (426) 
nM

>  <pchembl_value>  (426) 
7.2

>  <published_type>  (426) 
IC50

>  <activity_comment>  (426) 
None

$$$$

     RDKit          

 18 18  0  0  0  0  0  0  0  0999 V2000
    0.0000    0.0000    0.0000 C   0  0  0  0  0  0  0  0  0  0  0  0
    0.0000    0.0000    0.0000 C   0  0  0  0  0  0  0  0  0  0  0  0
    0.0000    0.0000    0.0000 O   0  0  0  0  0  0  0  0  0  0  0  0
    0.0000    0.0000    0.0000 P   0  0  0  0  0  0  0  0  0  0  0  0
    0.0000    0.0000    0.0000 O   0  0  0  0  0  0  0  0  0  0  0  0
    0.0000    0.0000    0.0000 O   0  0  0  0  0  0  0  0  0  0  0  0
    0.0000    0.0000    0.0000 C   0  0  0  0  0  0  0  0  0  0  0  0
    0.0000    0.0000    0.0000 C   0  0  0  0  0  0  0  0  0  0  0  0
    0.0000    0.0000    0.0000 O   0  0  0  0  0  0  0  0  0  0  0  0
    0.0000    0.0000    0.0000 C   0  0  0  0  0  0  0  0  0  0  0  0
    0.0000    0.0000    0.0000 C   0  0  0  0  0  0  0  0  0  0  0  0
    0.0000    0.0000    0.0000 C   0  0  0  0  0  0  0  0  0  0  0  0
    0.0000    0.0000    0.0000 C   0  0  0  0  0  0  0  0  0  0  0  0
    0.0000    0.0000    0.0000 C   0  0  0  0  0  0  0  0  0  0  0  0
    0.0000    0.0000    0.0000 C   0  0  0  0  0  0  0  0  0  0  0  0
    0.0000    0.0000    0.0000 N   0  0  0  0  0  0  0  0  0  0  0  0
    0.0000    0.0000    0.0000 O   0  0  0  0  0  0  0  0  0  0  0  0
    0.0000    0.0000    0.0000 O   0  0  0  0  0  0  0  0  0  0  0  0
  1  2  1  0
  2  3  1  0
  3  4  1  0
  4  5  2  0
  4  6  1  0
  6  7  1  0
  7  8  1  0
  4  9  1  0
  9 10  1  0
 10 11  2  0
 11 12  1  0
 12 13  2  0
 13 14  1  0
 14 15  2  0
 13 16  1  0
 16 17  2  0
 16 18  1  0
 15 10  1  0
M  CHG  2  16   1  18  -1
M  END
>  <pIC50>  (427) 
7.23

>  <ChEMBL_ID>  (427) 
CHEMBL23838

>  <document_journal>  (427) 
Bioorg. Med. Chem. Lett.

>  <bao_endpoint>  (427) 
BAO_0000190

>  <potential_duplicate>  (427) 
False

>  <uo_units>  (427) 
UO_0000065

>  <canonical_smiles>  (427) 
CCOP(=O)(OCC)Oc1ccc(cc1)[N+](=O)[O-]

>  <parent_molecule_chembl_id>  (427) 
CHEMBL23838

>  <assay_type>  (427) 
B

>  <src_id>  (427) 
1

>  <ligand_efficiency>  (427) 
{u'le': u'0.55', u'bei': u'26.27', u'sei': u'7.2', u'lle': u'5.23'}

>  <standard_flag>  (427) 
True

>  <molecule_chembl_id>  (427) 
CHEMBL23838

>  <target_organism>  (427) 
Homo sapiens

>  <standard_units>  (427) 
nM

>  <record_id>  (427) 
965098

>  <document_chembl_id>  (427) 
CHEMBL1268884

>  <bao_format>  (427) 
BAO_0000357

>  <data_validity_description>  (427) 
None

>  <activity_id>  (427) 
3516098

>  <standard_type>  (427) 
IC50

>  <target_chembl_id>  (427) 
CHEMBL205

>  <data_validity_comment>  (427) 
None

>  <published_value>  (427) 
59

>  <document_year>  (427) 
2010

>  <target_pref_name>  (427) 
Carbonic anhydrase II

>  <assay_chembl_id>  (427) 
CHEMBL1274991

>  <standard_relation>  (427) 
=

>  <assay_description>  (427) 
Inhibition of esterase activity of human carbonic anhydrase 2 by CO2 hydration method

>  <published_relation>  (427) 
=

>  <standard_value>  (427) 
59

>  <qudt_units>  (427) 
http://www.openphacts.org/units/Nanomolar

>  <target_tax_id>  (427) 
9606

>  <bao_label>  (427) 
single protein format

>  <published_units>  (427) 
nM

>  <pchembl_value>  (427) 
7.23

>  <published_type>  (427) 
IC50

>  <activity_comment>  (427) 
None

$$$$

     RDKit          

 47 52  0  0  0  0  0  0  0  0999 V2000
    0.0000    0.0000    0.0000 C   0  0  0  0  0  0  0  0  0  0  0  0
    0.0000    0.0000    0.0000 C   0  0  0  0  0  0  0  0  0  0  0  0
    0.0000    0.0000    0.0000 O   0  0  0  0  0  0  0  0  0  0  0  0
    0.0000    0.0000    0.0000 C   0  0  0  0  0  0  0  0  0  0  0  0
    0.0000    0.0000    0.0000 O   0  0  0  0  0  0  0  0  0  0  0  0
    0.0000    0.0000    0.0000 C   0  0  0  0  0  0  0  0  0  0  0  0
    0.0000    0.0000    0.0000 C   0  0  0  0  0  0  0  0  0  0  0  0
    0.0000    0.0000    0.0000 N   0  0  0  0  0  0  0  0  0  0  0  0
    0.0000    0.0000    0.0000 N   0  0  0  0  0  0  0  0  0  0  0  0
    0.0000    0.0000    0.0000 C   0  0  0  0  0  0  0  0  0  0  0  0
    0.0000    0.0000    0.0000 C   0  0  0  0  0  0  0  0  0  0  0  0
    0.0000    0.0000    0.0000 C   0  0  0  0  0  0  0  0  0  0  0  0
    0.0000    0.0000    0.0000 C   0  0  0  0  0  0  0  0  0  0  0  0
    0.0000    0.0000    0.0000 C   0  0  0  0  0  0  0  0  0  0  0  0
    0.0000    0.0000    0.0000 C   0  0  0  0  0  0  0  0  0  0  0  0
    0.0000    0.0000    0.0000 N   0  0  0  0  0  0  0  0  0  0  0  0
    0.0000    0.0000    0.0000 N   0  0  0  0  0  0  0  0  0  0  0  0
    0.0000    0.0000    0.0000 C   0  0  0  0  0  0  0  0  0  0  0  0
    0.0000    0.0000    0.0000 C   0  0  0  0  0  0  0  0  0  0  0  0
    0.0000    0.0000    0.0000 O   0  0  0  0  0  0  0  0  0  0  0  0
    0.0000    0.0000    0.0000 C   0  0  0  0  0  0  0  0  0  0  0  0
    0.0000    0.0000    0.0000 C   0  0  0  0  0  0  0  0  0  0  0  0
    0.0000    0.0000    0.0000 C   0  0  0  0  0  0  0  0  0  0  0  0
    0.0000    0.0000    0.0000 C   0  0  0  0  0  0  0  0  0  0  0  0
    0.0000    0.0000    0.0000 C   0  0  0  0  0  0  0  0  0  0  0  0
    0.0000    0.0000    0.0000 C   0  0  0  0  0  0  0  0  0  0  0  0
    0.0000    0.0000    0.0000 C   0  0  0  0  0  0  0  0  0  0  0  0
    0.0000    0.0000    0.0000 C   0  0  0  0  0  0  0  0  0  0  0  0
    0.0000    0.0000    0.0000 C   0  0  0  0  0  0  0  0  0  0  0  0
    0.0000    0.0000    0.0000 C   0  0  0  0  0  0  0  0  0  0  0  0
    0.0000    0.0000    0.0000 C   0  0  0  0  0  0  0  0  0  0  0  0
    0.0000    0.0000    0.0000 C   0  0  0  0  0  0  0  0  0  0  0  0
    0.0000    0.0000    0.0000 C   0  0  0  0  0  0  0  0  0  0  0  0
    0.0000    0.0000    0.0000 C   0  0  0  0  0  0  0  0  0  0  0  0
    0.0000    0.0000    0.0000 C   0  0  0  0  0  0  0  0  0  0  0  0
    0.0000    0.0000    0.0000 C   0  0  0  0  0  0  0  0  0  0  0  0
    0.0000    0.0000    0.0000 O   0  0  0  0  0  0  0  0  0  0  0  0
    0.0000    0.0000    0.0000 N   0  0  0  0  0  0  0  0  0  0  0  0
    0.0000    0.0000    0.0000 C   0  0  0  0  0  0  0  0  0  0  0  0
    0.0000    0.0000    0.0000 N   0  0  0  0  0  0  0  0  0  0  0  0
    0.0000    0.0000    0.0000 N   0  0  0  0  0  0  0  0  0  0  0  0
    0.0000    0.0000    0.0000 C   0  0  0  0  0  0  0  0  0  0  0  0
    0.0000    0.0000    0.0000 S   0  0  0  0  0  0  0  0  0  0  0  0
    0.0000    0.0000    0.0000 S   0  0  0  0  0  0  0  0  0  0  0  0
    0.0000    0.0000    0.0000 O   0  0  0  0  0  0  0  0  0  0  0  0
    0.0000    0.0000    0.0000 O   0  0  0  0  0  0  0  0  0  0  0  0
    0.0000    0.0000    0.0000 N   0  0  0  0  0  0  0  0  0  0  0  0
  1  2  1  0
  2  3  1  0
  3  4  1  0
  4  5  2  0
  4  6  1  0
  6  7  1  0
  7  8  2  0
  8  9  1  0
  9 10  1  0
 10 11  2  0
 11 12  1  0
 12 13  2  0
 13 14  1  0
 14 15  2  0
 14 16  1  0
 16 17  2  3
 17 18  1  0
 18 19  2  0
 19 20  1  0
 19 21  1  0
 21 22  2  0
 22 23  1  0
 23 24  2  0
 24 25  1  0
 25 26  2  0
 26 27  1  0
 27 28  2  0
  9 29  1  0
 29 30  1  0
 30 31  2  0
 31 32  1  0
 32 33  2  0
 33 34  1  0
 34 35  2  0
  7 36  1  0
 36 37  2  0
 36 38  1  0
 38 39  1  0
 39 40  2  0
 40 41  1  0
 41 42  2  0
 42 43  1  0
 42 44  1  0
 44 45  2  0
 44 46  2  0
 44 47  1  0
 29  6  2  0
 15 10  1  0
 28 18  1  0
 28 23  1  0
 35 30  1  0
 43 39  1  0
M  END
>  <pIC50>  (428) 
6.71

>  <ChEMBL_ID>  (428) 
CHEMBL1276015

>  <document_journal>  (428) 
Eur. J. Med. Chem.

>  <bao_endpoint>  (428) 
BAO_0000190

>  <potential_duplicate>  (428) 
False

>  <uo_units>  (428) 
UO_0000065

>  <canonical_smiles>  (428) 
CCOC(=O)c1c(nn(c2cccc(c2)N=Nc3c(O)ccc4ccccc34)c1c5ccccc5)C(=O)Nc6nnc(s6)S(=O)(=O)N

>  <parent_molecule_chembl_id>  (428) 
CHEMBL1276015

>  <assay_type>  (428) 
B

>  <src_id>  (428) 
1

>  <ligand_efficiency>  (428) 
{u'le': u'0.18', u'bei': u'9.45', u'sei': u'2.62', u'lle': u'0.28'}

>  <standard_flag>  (428) 
True

>  <molecule_chembl_id>  (428) 
CHEMBL1276015

>  <target_organism>  (428) 
Homo sapiens

>  <standard_units>  (428) 
nM

>  <record_id>  (428) 
969059

>  <document_chembl_id>  (428) 
CHEMBL1275267

>  <bao_format>  (428) 
BAO_0000357

>  <data_validity_description>  (428) 
None

>  <activity_id>  (428) 
3533529

>  <standard_type>  (428) 
IC50

>  <target_chembl_id>  (428) 
CHEMBL205

>  <data_validity_comment>  (428) 
None

>  <published_value>  (428) 
0.48

>  <document_year>  (428) 
2010

>  <target_pref_name>  (428) 
Carbonic anhydrase II

>  <assay_chembl_id>  (428) 
CHEMBL1285701

>  <standard_relation>  (428) 
=

>  <assay_description>  (428) 
Inhibition of human carbonic anhydrase 2 esterase activity by spectrophotometry

>  <published_relation>  (428) 
=

>  <standard_value>  (428) 
480

>  <qudt_units>  (428) 
http://www.openphacts.org/units/Nanomolar

>  <target_tax_id>  (428) 
9606

>  <bao_label>  (428) 
single protein format

>  <published_units>  (428) 
uM

>  <pchembl_value>  (428) 
6.32

>  <published_type>  (428) 
IC50

>  <activity_comment>  (428) 
None

$$$$

     RDKit          

 43 47  0  0  0  0  0  0  0  0999 V2000
    0.0000    0.0000    0.0000 C   0  0  0  0  0  0  0  0  0  0  0  0
    0.0000    0.0000    0.0000 C   0  0  0  0  0  0  0  0  0  0  0  0
    0.0000    0.0000    0.0000 O   0  0  0  0  0  0  0  0  0  0  0  0
    0.0000    0.0000    0.0000 C   0  0  0  0  0  0  0  0  0  0  0  0
    0.0000    0.0000    0.0000 O   0  0  0  0  0  0  0  0  0  0  0  0
    0.0000    0.0000    0.0000 C   0  0  0  0  0  0  0  0  0  0  0  0
    0.0000    0.0000    0.0000 C   0  0  0  0  0  0  0  0  0  0  0  0
    0.0000    0.0000    0.0000 N   0  0  0  0  0  0  0  0  0  0  0  0
    0.0000    0.0000    0.0000 N   0  0  0  0  0  0  0  0  0  0  0  0
    0.0000    0.0000    0.0000 C   0  0  0  0  0  0  0  0  0  0  0  0
    0.0000    0.0000    0.0000 C   0  0  0  0  0  0  0  0  0  0  0  0
    0.0000    0.0000    0.0000 C   0  0  0  0  0  0  0  0  0  0  0  0
    0.0000    0.0000    0.0000 C   0  0  0  0  0  0  0  0  0  0  0  0
    0.0000    0.0000    0.0000 C   0  0  0  0  0  0  0  0  0  0  0  0
    0.0000    0.0000    0.0000 C   0  0  0  0  0  0  0  0  0  0  0  0
    0.0000    0.0000    0.0000 N   0  0  0  0  0  0  0  0  0  0  0  0
    0.0000    0.0000    0.0000 N   0  0  0  0  0  0  0  0  0  0  0  0
    0.0000    0.0000    0.0000 C   0  0  0  0  0  0  0  0  0  0  0  0
    0.0000    0.0000    0.0000 C   0  0  0  0  0  0  0  0  0  0  0  0
    0.0000    0.0000    0.0000 C   0  0  0  0  0  0  0  0  0  0  0  0
    0.0000    0.0000    0.0000 C   0  0  0  0  0  0  0  0  0  0  0  0
    0.0000    0.0000    0.0000 O   0  0  0  0  0  0  0  0  0  0  0  0
    0.0000    0.0000    0.0000 C   0  0  0  0  0  0  0  0  0  0  0  0
    0.0000    0.0000    0.0000 C   0  0  0  0  0  0  0  0  0  0  0  0
    0.0000    0.0000    0.0000 C   0  0  0  0  0  0  0  0  0  0  0  0
    0.0000    0.0000    0.0000 C   0  0  0  0  0  0  0  0  0  0  0  0
    0.0000    0.0000    0.0000 C   0  0  0  0  0  0  0  0  0  0  0  0
    0.0000    0.0000    0.0000 C   0  0  0  0  0  0  0  0  0  0  0  0
    0.0000    0.0000    0.0000 C   0  0  0  0  0  0  0  0  0  0  0  0
    0.0000    0.0000    0.0000 C   0  0  0  0  0  0  0  0  0  0  0  0
    0.0000    0.0000    0.0000 C   0  0  0  0  0  0  0  0  0  0  0  0
    0.0000    0.0000    0.0000 C   0  0  0  0  0  0  0  0  0  0  0  0
    0.0000    0.0000    0.0000 O   0  0  0  0  0  0  0  0  0  0  0  0
    0.0000    0.0000    0.0000 N   0  0  0  0  0  0  0  0  0  0  0  0
    0.0000    0.0000    0.0000 C   0  0  0  0  0  0  0  0  0  0  0  0
    0.0000    0.0000    0.0000 N   0  0  0  0  0  0  0  0  0  0  0  0
    0.0000    0.0000    0.0000 N   0  0  0  0  0  0  0  0  0  0  0  0
    0.0000    0.0000    0.0000 C   0  0  0  0  0  0  0  0  0  0  0  0
    0.0000    0.0000    0.0000 S   0  0  0  0  0  0  0  0  0  0  0  0
    0.0000    0.0000    0.0000 S   0  0  0  0  0  0  0  0  0  0  0  0
    0.0000    0.0000    0.0000 O   0  0  0  0  0  0  0  0  0  0  0  0
    0.0000    0.0000    0.0000 O   0  0  0  0  0  0  0  0  0  0  0  0
    0.0000    0.0000    0.0000 N   0  0  0  0  0  0  0  0  0  0  0  0
  1  2  1  0
  2  3  1  0
  3  4  1  0
  4  5  2  0
  4  6  1  0
  6  7  1  0
  7  8  2  0
  8  9  1  0
  9 10  1  0
 10 11  2  0
 11 12  1  0
 12 13  2  0
 13 14  1  0
 14 15  2  0
 14 16  1  0
 16 17  2  3
 17 18  1  0
 18 19  2  0
 19 20  1  0
 20 21  2  0
 21 22  1  0
 21 23  1  0
 23 24  2  0
  9 25  1  0
 25 26  1  0
 26 27  2  0
 27 28  1  0
 28 29  2  0
 29 30  1  0
 30 31  2  0
  7 32  1  0
 32 33  2  0
 32 34  1  0
 34 35  1  0
 35 36  2  0
 36 37  1  0
 37 38  2  0
 38 39  1  0
 38 40  1  0
 40 41  2  0
 40 42  2  0
 40 43  1  0
 25  6  2  0
 15 10  1  0
 24 18  1  0
 31 26  1  0
 39 35  1  0
M  END
>  <pIC50>  (429) 
6.34

>  <ChEMBL_ID>  (429) 
CHEMBL1276016

>  <document_journal>  (429) 
Eur. J. Med. Chem.

>  <bao_endpoint>  (429) 
BAO_0000190

>  <potential_duplicate>  (429) 
False

>  <uo_units>  (429) 
UO_0000065

>  <canonical_smiles>  (429) 
CCOC(=O)c1c(nn(c2cccc(c2)N=Nc3ccc(O)cc3)c1c4ccccc4)C(=O)Nc5nnc(s5)S(=O)(=O)N

>  <parent_molecule_chembl_id>  (429) 
CHEMBL1276016

>  <assay_type>  (429) 
B

>  <src_id>  (429) 
1

>  <ligand_efficiency>  (429) 
{u'le': u'0.2', u'bei': u'10.23', u'sei': u'2.63', u'lle': u'1.2'}

>  <standard_flag>  (429) 
True

>  <molecule_chembl_id>  (429) 
CHEMBL1276016

>  <target_organism>  (429) 
Homo sapiens

>  <standard_units>  (429) 
nM

>  <record_id>  (429) 
969060

>  <document_chembl_id>  (429) 
CHEMBL1275267

>  <bao_format>  (429) 
BAO_0000357

>  <data_validity_description>  (429) 
None

>  <activity_id>  (429) 
3533530

>  <standard_type>  (429) 
IC50

>  <target_chembl_id>  (429) 
CHEMBL205

>  <data_validity_comment>  (429) 
None

>  <published_value>  (429) 
0.47

>  <document_year>  (429) 
2010

>  <target_pref_name>  (429) 
Carbonic anhydrase II

>  <assay_chembl_id>  (429) 
CHEMBL1285701

>  <standard_relation>  (429) 
=

>  <assay_description>  (429) 
Inhibition of human carbonic anhydrase 2 esterase activity by spectrophotometry

>  <published_relation>  (429) 
=

>  <standard_value>  (429) 
470

>  <qudt_units>  (429) 
http://www.openphacts.org/units/Nanomolar

>  <target_tax_id>  (429) 
9606

>  <bao_label>  (429) 
single protein format

>  <published_units>  (429) 
uM

>  <pchembl_value>  (429) 
6.33

>  <published_type>  (429) 
IC50

>  <activity_comment>  (429) 
None

$$$$

     RDKit          

 35 38  0  0  0  0  0  0  0  0999 V2000
    0.0000    0.0000    0.0000 C   0  0  0  0  0  0  0  0  0  0  0  0
    0.0000    0.0000    0.0000 C   0  0  0  0  0  0  0  0  0  0  0  0
    0.0000    0.0000    0.0000 O   0  0  0  0  0  0  0  0  0  0  0  0
    0.0000    0.0000    0.0000 C   0  0  0  0  0  0  0  0  0  0  0  0
    0.0000    0.0000    0.0000 O   0  0  0  0  0  0  0  0  0  0  0  0
    0.0000    0.0000    0.0000 C   0  0  0  0  0  0  0  0  0  0  0  0
    0.0000    0.0000    0.0000 C   0  0  0  0  0  0  0  0  0  0  0  0
    0.0000    0.0000    0.0000 N   0  0  0  0  0  0  0  0  0  0  0  0
    0.0000    0.0000    0.0000 N   0  0  0  0  0  0  0  0  0  0  0  0
    0.0000    0.0000    0.0000 C   0  0  0  0  0  0  0  0  0  0  0  0
    0.0000    0.0000    0.0000 C   0  0  0  0  0  0  0  0  0  0  0  0
    0.0000    0.0000    0.0000 C   0  0  0  0  0  0  0  0  0  0  0  0
    0.0000    0.0000    0.0000 C   0  0  0  0  0  0  0  0  0  0  0  0
    0.0000    0.0000    0.0000 C   0  0  0  0  0  0  0  0  0  0  0  0
    0.0000    0.0000    0.0000 I   0  0  0  0  0  0  0  0  0  0  0  0
    0.0000    0.0000    0.0000 C   0  0  0  0  0  0  0  0  0  0  0  0
    0.0000    0.0000    0.0000 C   0  0  0  0  0  0  0  0  0  0  0  0
    0.0000    0.0000    0.0000 C   0  0  0  0  0  0  0  0  0  0  0  0
    0.0000    0.0000    0.0000 C   0  0  0  0  0  0  0  0  0  0  0  0
    0.0000    0.0000    0.0000 C   0  0  0  0  0  0  0  0  0  0  0  0
    0.0000    0.0000    0.0000 C   0  0  0  0  0  0  0  0  0  0  0  0
    0.0000    0.0000    0.0000 C   0  0  0  0  0  0  0  0  0  0  0  0
    0.0000    0.0000    0.0000 C   0  0  0  0  0  0  0  0  0  0  0  0
    0.0000    0.0000    0.0000 C   0  0  0  0  0  0  0  0  0  0  0  0
    0.0000    0.0000    0.0000 O   0  0  0  0  0  0  0  0  0  0  0  0
    0.0000    0.0000    0.0000 N   0  0  0  0  0  0  0  0  0  0  0  0
    0.0000    0.0000    0.0000 C   0  0  0  0  0  0  0  0  0  0  0  0
    0.0000    0.0000    0.0000 N   0  0  0  0  0  0  0  0  0  0  0  0
    0.0000    0.0000    0.0000 N   0  0  0  0  0  0  0  0  0  0  0  0
    0.0000    0.0000    0.0000 C   0  0  0  0  0  0  0  0  0  0  0  0
    0.0000    0.0000    0.0000 S   0  0  0  0  0  0  0  0  0  0  0  0
    0.0000    0.0000    0.0000 S   0  0  0  0  0  0  0  0  0  0  0  0
    0.0000    0.0000    0.0000 O   0  0  0  0  0  0  0  0  0  0  0  0
    0.0000    0.0000    0.0000 O   0  0  0  0  0  0  0  0  0  0  0  0
    0.0000    0.0000    0.0000 N   0  0  0  0  0  0  0  0  0  0  0  0
  1  2  1  0
  2  3  1  0
  3  4  1  0
  4  5  2  0
  4  6  1  0
  6  7  1  0
  7  8  2  0
  8  9  1  0
  9 10  1  0
 10 11  2  0
 11 12  1  0
 12 13  2  0
 13 14  1  0
 14 15  1  0
 14 16  2  0
  9 17  1  0
 17 18  1  0
 18 19  2  0
 19 20  1  0
 20 21  2  0
 21 22  1  0
 22 23  2  0
  7 24  1  0
 24 25  2  0
 24 26  1  0
 26 27  1  0
 27 28  2  0
 28 29  1  0
 29 30  2  0
 30 31  1  0
 30 32  1  0
 32 33  2  0
 32 34  2  0
 32 35  1  0
 17  6  2  0
 16 10  1  0
 23 18  1  0
 31 27  1  0
M  END
>  <pIC50>  (430) 
7.095

>  <ChEMBL_ID>  (430) 
CHEMBL1276394

>  <document_journal>  (430) 
Eur. J. Med. Chem.

>  <bao_endpoint>  (430) 
BAO_0000190

>  <potential_duplicate>  (430) 
False

>  <uo_units>  (430) 
UO_0000065

>  <canonical_smiles>  (430) 
CCOC(=O)c1c(nn(c2cccc(I)c2)c1c3ccccc3)C(=O)Nc4nnc(s4)S(=O)(=O)N

>  <parent_molecule_chembl_id>  (430) 
CHEMBL1276394

>  <assay_type>  (430) 
B

>  <src_id>  (430) 
1

>  <ligand_efficiency>  (430) 
{u'le': u'0.28', u'bei': u'11.69', u'sei': u'3.73', u'lle': u'3.72'}

>  <standard_flag>  (430) 
True

>  <molecule_chembl_id>  (430) 
CHEMBL1276394

>  <target_organism>  (430) 
Homo sapiens

>  <standard_units>  (430) 
nM

>  <record_id>  (430) 
970155

>  <document_chembl_id>  (430) 
CHEMBL1275267

>  <bao_format>  (430) 
BAO_0000357

>  <data_validity_description>  (430) 
None

>  <activity_id>  (430) 
3533531

>  <standard_type>  (430) 
IC50

>  <target_chembl_id>  (430) 
CHEMBL205

>  <data_validity_comment>  (430) 
None

>  <published_value>  (430) 
0.05

>  <document_year>  (430) 
2010

>  <target_pref_name>  (430) 
Carbonic anhydrase II

>  <assay_chembl_id>  (430) 
CHEMBL1285701

>  <standard_relation>  (430) 
=

>  <assay_description>  (430) 
Inhibition of human carbonic anhydrase 2 esterase activity by spectrophotometry

>  <published_relation>  (430) 
=

>  <standard_value>  (430) 
50

>  <qudt_units>  (430) 
http://www.openphacts.org/units/Nanomolar

>  <target_tax_id>  (430) 
9606

>  <bao_label>  (430) 
single protein format

>  <published_units>  (430) 
uM

>  <pchembl_value>  (430) 
7.3

>  <published_type>  (430) 
IC50

>  <activity_comment>  (430) 
None

$$$$

     RDKit          

 43 46  0  0  0  0  0  0  0  0999 V2000
    0.0000    0.0000    0.0000 C   0  0  0  0  0  0  0  0  0  0  0  0
    0.0000    0.0000    0.0000 C   0  0  0  0  0  0  0  0  0  0  0  0
    0.0000    0.0000    0.0000 O   0  0  0  0  0  0  0  0  0  0  0  0
    0.0000    0.0000    0.0000 C   0  0  0  0  0  0  0  0  0  0  0  0
    0.0000    0.0000    0.0000 O   0  0  0  0  0  0  0  0  0  0  0  0
    0.0000    0.0000    0.0000 C   0  0  0  0  0  0  0  0  0  0  0  0
    0.0000    0.0000    0.0000 C   0  0  0  0  0  0  0  0  0  0  0  0
    0.0000    0.0000    0.0000 N   0  0  0  0  0  0  0  0  0  0  0  0
    0.0000    0.0000    0.0000 N   0  0  0  0  0  0  0  0  0  0  0  0
    0.0000    0.0000    0.0000 C   0  0  0  0  0  0  0  0  0  0  0  0
    0.0000    0.0000    0.0000 C   0  0  0  0  0  0  0  0  0  0  0  0
    0.0000    0.0000    0.0000 C   0  0  0  0  0  0  0  0  0  0  0  0
    0.0000    0.0000    0.0000 C   0  0  0  0  0  0  0  0  0  0  0  0
    0.0000    0.0000    0.0000 C   0  0  0  0  0  0  0  0  0  0  0  0
    0.0000    0.0000    0.0000 N   0  0  0  0  0  0  0  0  0  0  0  0
    0.0000    0.0000    0.0000 N   0  0  0  0  0  0  0  0  0  0  0  0
    0.0000    0.0000    0.0000 C   0  0  0  0  0  0  0  0  0  0  0  0
    0.0000    0.0000    0.0000 C   0  0  0  0  0  0  0  0  0  0  0  0
    0.0000    0.0000    0.0000 O   0  0  0  0  0  0  0  0  0  0  0  0
    0.0000    0.0000    0.0000 C   0  0  0  0  0  0  0  0  0  0  0  0
    0.0000    0.0000    0.0000 C   0  0  0  0  0  0  0  0  0  0  0  0
    0.0000    0.0000    0.0000 O   0  0  0  0  0  0  0  0  0  0  0  0
    0.0000    0.0000    0.0000 C   0  0  0  0  0  0  0  0  0  0  0  0
    0.0000    0.0000    0.0000 C   0  0  0  0  0  0  0  0  0  0  0  0
    0.0000    0.0000    0.0000 C   0  0  0  0  0  0  0  0  0  0  0  0
    0.0000    0.0000    0.0000 C   0  0  0  0  0  0  0  0  0  0  0  0
    0.0000    0.0000    0.0000 C   0  0  0  0  0  0  0  0  0  0  0  0
    0.0000    0.0000    0.0000 C   0  0  0  0  0  0  0  0  0  0  0  0
    0.0000    0.0000    0.0000 C   0  0  0  0  0  0  0  0  0  0  0  0
    0.0000    0.0000    0.0000 C   0  0  0  0  0  0  0  0  0  0  0  0
    0.0000    0.0000    0.0000 C   0  0  0  0  0  0  0  0  0  0  0  0
    0.0000    0.0000    0.0000 C   0  0  0  0  0  0  0  0  0  0  0  0
    0.0000    0.0000    0.0000 O   0  0  0  0  0  0  0  0  0  0  0  0
    0.0000    0.0000    0.0000 N   0  0  0  0  0  0  0  0  0  0  0  0
    0.0000    0.0000    0.0000 C   0  0  0  0  0  0  0  0  0  0  0  0
    0.0000    0.0000    0.0000 N   0  0  0  0  0  0  0  0  0  0  0  0
    0.0000    0.0000    0.0000 N   0  0  0  0  0  0  0  0  0  0  0  0
    0.0000    0.0000    0.0000 C   0  0  0  0  0  0  0  0  0  0  0  0
    0.0000    0.0000    0.0000 S   0  0  0  0  0  0  0  0  0  0  0  0
    0.0000    0.0000    0.0000 S   0  0  0  0  0  0  0  0  0  0  0  0
    0.0000    0.0000    0.0000 O   0  0  0  0  0  0  0  0  0  0  0  0
    0.0000    0.0000    0.0000 O   0  0  0  0  0  0  0  0  0  0  0  0
    0.0000    0.0000    0.0000 N   0  0  0  0  0  0  0  0  0  0  0  0
  1  2  1  0
  2  3  1  0
  3  4  1  0
  4  5  2  0
  4  6  1  0
  6  7  1  0
  7  8  2  0
  8  9  1  0
  9 10  1  0
 10 11  2  0
 11 12  1  0
 12 13  2  0
 13 14  1  0
 14 15  1  0
 15 16  1  0
 16 17  2  3
 17 18  1  0
 18 19  2  0
 18 20  1  0
 17 21  1  0
 21 22  2  0
 21 23  1  0
 14 24  2  0
  9 25  1  0
 25 26  1  0
 26 27  2  0
 27 28  1  0
 28 29  2  0
 29 30  1  0
 30 31  2  0
  7 32  1  0
 32 33  2  0
 32 34  1  0
 34 35  1  0
 35 36  2  0
 36 37  1  0
 37 38  2  0
 38 39  1  0
 38 40  1  0
 40 41  2  0
 40 42  2  0
 40 43  1  0
 25  6  2  0
 24 10  1  0
 31 26  1  0
 39 35  1  0
M  END
>  <pIC50>  (431) 
6.515

>  <ChEMBL_ID>  (431) 
CHEMBL1276017

>  <document_journal>  (431) 
Eur. J. Med. Chem.

>  <bao_endpoint>  (431) 
BAO_0000190

>  <potential_duplicate>  (431) 
False

>  <uo_units>  (431) 
UO_0000065

>  <canonical_smiles>  (431) 
CCOC(=O)c1c(nn(c2cccc(NN=C(C(=O)C)C(=O)C)c2)c1c3ccccc3)C(=O)Nc4nnc(s4)S(=O)(=O)N

>  <parent_molecule_chembl_id>  (431) 
CHEMBL1276017

>  <assay_type>  (431) 
B

>  <src_id>  (431) 
1

>  <ligand_efficiency>  (431) 
{u'le': u'0.2', u'bei': u'10.16', u'sei': u'2.5', u'lle': u'3.67'}

>  <standard_flag>  (431) 
True

>  <molecule_chembl_id>  (431) 
CHEMBL1276017

>  <target_organism>  (431) 
Homo sapiens

>  <standard_units>  (431) 
nM

>  <record_id>  (431) 
969061

>  <document_chembl_id>  (431) 
CHEMBL1275267

>  <bao_format>  (431) 
BAO_0000357

>  <data_validity_description>  (431) 
None

>  <activity_id>  (431) 
3533532

>  <standard_type>  (431) 
IC50

>  <target_chembl_id>  (431) 
CHEMBL205

>  <data_validity_comment>  (431) 
None

>  <published_value>  (431) 
0.45

>  <document_year>  (431) 
2010

>  <target_pref_name>  (431) 
Carbonic anhydrase II

>  <assay_chembl_id>  (431) 
CHEMBL1285701

>  <standard_relation>  (431) 
=

>  <assay_description>  (431) 
Inhibition of human carbonic anhydrase 2 esterase activity by spectrophotometry

>  <published_relation>  (431) 
=

>  <standard_value>  (431) 
450

>  <qudt_units>  (431) 
http://www.openphacts.org/units/Nanomolar

>  <target_tax_id>  (431) 
9606

>  <bao_label>  (431) 
single protein format

>  <published_units>  (431) 
uM

>  <pchembl_value>  (431) 
6.35

>  <published_type>  (431) 
IC50

>  <activity_comment>  (431) 
None

$$$$

     RDKit          

 48 52  0  0  0  0  0  0  0  0999 V2000
    0.0000    0.0000    0.0000 C   0  0  0  0  0  0  0  0  0  0  0  0
    0.0000    0.0000    0.0000 C   0  0  0  0  0  0  0  0  0  0  0  0
    0.0000    0.0000    0.0000 O   0  0  0  0  0  0  0  0  0  0  0  0
    0.0000    0.0000    0.0000 C   0  0  0  0  0  0  0  0  0  0  0  0
    0.0000    0.0000    0.0000 O   0  0  0  0  0  0  0  0  0  0  0  0
    0.0000    0.0000    0.0000 C   0  0  0  0  0  0  0  0  0  0  0  0
    0.0000    0.0000    0.0000 C   0  0  0  0  0  0  0  0  0  0  0  0
    0.0000    0.0000    0.0000 N   0  0  0  0  0  0  0  0  0  0  0  0
    0.0000    0.0000    0.0000 N   0  0  0  0  0  0  0  0  0  0  0  0
    0.0000    0.0000    0.0000 C   0  0  0  0  0  0  0  0  0  0  0  0
    0.0000    0.0000    0.0000 C   0  0  0  0  0  0  0  0  0  0  0  0
    0.0000    0.0000    0.0000 C   0  0  0  0  0  0  0  0  0  0  0  0
    0.0000    0.0000    0.0000 C   0  0  0  0  0  0  0  0  0  0  0  0
    0.0000    0.0000    0.0000 C   0  0  0  0  0  0  0  0  0  0  0  0
    0.0000    0.0000    0.0000 N   0  0  0  0  0  0  0  0  0  0  0  0
    0.0000    0.0000    0.0000 N   0  0  0  0  0  0  0  0  0  0  0  0
    0.0000    0.0000    0.0000 C   0  0  0  0  0  0  0  0  0  0  0  0
    0.0000    0.0000    0.0000 C   0  0  0  0  0  0  0  0  0  0  0  0
    0.0000    0.0000    0.0000 O   0  0  0  0  0  0  0  0  0  0  0  0
    0.0000    0.0000    0.0000 C   0  0  0  0  0  0  0  0  0  0  0  0
    0.0000    0.0000    0.0000 C   0  0  0  0  0  0  0  0  0  0  0  0
    0.0000    0.0000    0.0000 O   0  0  0  0  0  0  0  0  0  0  0  0
    0.0000    0.0000    0.0000 C   0  0  0  0  0  0  0  0  0  0  0  0
    0.0000    0.0000    0.0000 C   0  0  0  0  0  0  0  0  0  0  0  0
    0.0000    0.0000    0.0000 C   0  0  0  0  0  0  0  0  0  0  0  0
    0.0000    0.0000    0.0000 C   0  0  0  0  0  0  0  0  0  0  0  0
    0.0000    0.0000    0.0000 C   0  0  0  0  0  0  0  0  0  0  0  0
    0.0000    0.0000    0.0000 C   0  0  0  0  0  0  0  0  0  0  0  0
    0.0000    0.0000    0.0000 C   0  0  0  0  0  0  0  0  0  0  0  0
    0.0000    0.0000    0.0000 C   0  0  0  0  0  0  0  0  0  0  0  0
    0.0000    0.0000    0.0000 C   0  0  0  0  0  0  0  0  0  0  0  0
    0.0000    0.0000    0.0000 C   0  0  0  0  0  0  0  0  0  0  0  0
    0.0000    0.0000    0.0000 C   0  0  0  0  0  0  0  0  0  0  0  0
    0.0000    0.0000    0.0000 C   0  0  0  0  0  0  0  0  0  0  0  0
    0.0000    0.0000    0.0000 C   0  0  0  0  0  0  0  0  0  0  0  0
    0.0000    0.0000    0.0000 C   0  0  0  0  0  0  0  0  0  0  0  0
    0.0000    0.0000    0.0000 C   0  0  0  0  0  0  0  0  0  0  0  0
    0.0000    0.0000    0.0000 O   0  0  0  0  0  0  0  0  0  0  0  0
    0.0000    0.0000    0.0000 N   0  0  0  0  0  0  0  0  0  0  0  0
    0.0000    0.0000    0.0000 C   0  0  0  0  0  0  0  0  0  0  0  0
    0.0000    0.0000    0.0000 N   0  0  0  0  0  0  0  0  0  0  0  0
    0.0000    0.0000    0.0000 N   0  0  0  0  0  0  0  0  0  0  0  0
    0.0000    0.0000    0.0000 C   0  0  0  0  0  0  0  0  0  0  0  0
    0.0000    0.0000    0.0000 S   0  0  0  0  0  0  0  0  0  0  0  0
    0.0000    0.0000    0.0000 S   0  0  0  0  0  0  0  0  0  0  0  0
    0.0000    0.0000    0.0000 O   0  0  0  0  0  0  0  0  0  0  0  0
    0.0000    0.0000    0.0000 O   0  0  0  0  0  0  0  0  0  0  0  0
    0.0000    0.0000    0.0000 N   0  0  0  0  0  0  0  0  0  0  0  0
  1  2  1  0
  2  3  1  0
  3  4  1  0
  4  5  2  0
  4  6  1  0
  6  7  1  0
  7  8  2  0
  8  9  1  0
  9 10  1  0
 10 11  2  0
 11 12  1  0
 12 13  2  0
 13 14  1  0
 14 15  1  0
 15 16  1  0
 16 17  2  0
 17 18  1  0
 18 19  2  0
 18 20  1  0
 17 21  1  0
 21 22  2  0
 21 23  1  0
 23 24  2  0
 24 25  1  0
 25 26  2  0
 26 27  1  0
 27 28  2  0
 14 29  2  0
  9 30  1  0
 30 31  1  0
 31 32  2  0
 32 33  1  0
 33 34  2  0
 34 35  1  0
 35 36  2  0
  7 37  1  0
 37 38  2  0
 37 39  1  0
 39 40  1  0
 40 41  2  0
 41 42  1  0
 42 43  2  0
 43 44  1  0
 43 45  1  0
 45 46  2  0
 45 47  2  0
 45 48  1  0
 30  6  2  0
 29 10  1  0
 28 23  1  0
 36 31  1  0
 44 40  1  0
M  END
>  <pIC50>  (432) 
6.355

>  <ChEMBL_ID>  (432) 
CHEMBL1276018

>  <document_journal>  (432) 
Eur. J. Med. Chem.

>  <bao_endpoint>  (432) 
BAO_0000190

>  <potential_duplicate>  (432) 
False

>  <uo_units>  (432) 
UO_0000065

>  <canonical_smiles>  (432) 
CCOC(=O)c1c(nn(c2cccc(N\N=C(/C(=O)C)\C(=O)c3ccccc3)c2)c1c4ccccc4)C(=O)Nc5nnc(s5)S(=O)(=O)N

>  <parent_molecule_chembl_id>  (432) 
CHEMBL1276018

>  <assay_type>  (432) 
B

>  <src_id>  (432) 
1

>  <ligand_efficiency>  (432) 
{u'le': u'0.18', u'bei': u'9.08', u'sei': u'2.45', u'lle': u'1.88'}

>  <standard_flag>  (432) 
True

>  <molecule_chembl_id>  (432) 
CHEMBL1276018

>  <target_organism>  (432) 
Homo sapiens

>  <standard_units>  (432) 
nM

>  <record_id>  (432) 
969062

>  <document_chembl_id>  (432) 
CHEMBL1275267

>  <bao_format>  (432) 
BAO_0000357

>  <data_validity_description>  (432) 
None

>  <activity_id>  (432) 
3533533

>  <standard_type>  (432) 
IC50

>  <target_chembl_id>  (432) 
CHEMBL205

>  <data_validity_comment>  (432) 
None

>  <published_value>  (432) 
0.58

>  <document_year>  (432) 
2010

>  <target_pref_name>  (432) 
Carbonic anhydrase II

>  <assay_chembl_id>  (432) 
CHEMBL1285701

>  <standard_relation>  (432) 
=

>  <assay_description>  (432) 
Inhibition of human carbonic anhydrase 2 esterase activity by spectrophotometry

>  <published_relation>  (432) 
=

>  <standard_value>  (432) 
580

>  <qudt_units>  (432) 
http://www.openphacts.org/units/Nanomolar

>  <target_tax_id>  (432) 
9606

>  <bao_label>  (432) 
single protein format

>  <published_units>  (432) 
uM

>  <pchembl_value>  (432) 
6.24

>  <published_type>  (432) 
IC50

>  <activity_comment>  (432) 
None

$$$$

     RDKit          

 53 58  0  0  0  0  0  0  0  0999 V2000
    0.0000    0.0000    0.0000 C   0  0  0  0  0  0  0  0  0  0  0  0
    0.0000    0.0000    0.0000 C   0  0  0  0  0  0  0  0  0  0  0  0
    0.0000    0.0000    0.0000 O   0  0  0  0  0  0  0  0  0  0  0  0
    0.0000    0.0000    0.0000 C   0  0  0  0  0  0  0  0  0  0  0  0
    0.0000    0.0000    0.0000 O   0  0  0  0  0  0  0  0  0  0  0  0
    0.0000    0.0000    0.0000 C   0  0  0  0  0  0  0  0  0  0  0  0
    0.0000    0.0000    0.0000 C   0  0  0  0  0  0  0  0  0  0  0  0
    0.0000    0.0000    0.0000 N   0  0  0  0  0  0  0  0  0  0  0  0
    0.0000    0.0000    0.0000 N   0  0  0  0  0  0  0  0  0  0  0  0
    0.0000    0.0000    0.0000 C   0  0  0  0  0  0  0  0  0  0  0  0
    0.0000    0.0000    0.0000 C   0  0  0  0  0  0  0  0  0  0  0  0
    0.0000    0.0000    0.0000 C   0  0  0  0  0  0  0  0  0  0  0  0
    0.0000    0.0000    0.0000 C   0  0  0  0  0  0  0  0  0  0  0  0
    0.0000    0.0000    0.0000 C   0  0  0  0  0  0  0  0  0  0  0  0
    0.0000    0.0000    0.0000 N   0  0  0  0  0  0  0  0  0  0  0  0
    0.0000    0.0000    0.0000 N   0  0  0  0  0  0  0  0  0  0  0  0
    0.0000    0.0000    0.0000 C   0  0  0  0  0  0  0  0  0  0  0  0
    0.0000    0.0000    0.0000 C   0  0  0  0  0  0  0  0  0  0  0  0
    0.0000    0.0000    0.0000 O   0  0  0  0  0  0  0  0  0  0  0  0
    0.0000    0.0000    0.0000 C   0  0  0  0  0  0  0  0  0  0  0  0
    0.0000    0.0000    0.0000 C   0  0  0  0  0  0  0  0  0  0  0  0
    0.0000    0.0000    0.0000 C   0  0  0  0  0  0  0  0  0  0  0  0
    0.0000    0.0000    0.0000 C   0  0  0  0  0  0  0  0  0  0  0  0
    0.0000    0.0000    0.0000 C   0  0  0  0  0  0  0  0  0  0  0  0
    0.0000    0.0000    0.0000 C   0  0  0  0  0  0  0  0  0  0  0  0
    0.0000    0.0000    0.0000 C   0  0  0  0  0  0  0  0  0  0  0  0
    0.0000    0.0000    0.0000 O   0  0  0  0  0  0  0  0  0  0  0  0
    0.0000    0.0000    0.0000 C   0  0  0  0  0  0  0  0  0  0  0  0
    0.0000    0.0000    0.0000 C   0  0  0  0  0  0  0  0  0  0  0  0
    0.0000    0.0000    0.0000 C   0  0  0  0  0  0  0  0  0  0  0  0
    0.0000    0.0000    0.0000 C   0  0  0  0  0  0  0  0  0  0  0  0
    0.0000    0.0000    0.0000 C   0  0  0  0  0  0  0  0  0  0  0  0
    0.0000    0.0000    0.0000 C   0  0  0  0  0  0  0  0  0  0  0  0
    0.0000    0.0000    0.0000 C   0  0  0  0  0  0  0  0  0  0  0  0
    0.0000    0.0000    0.0000 C   0  0  0  0  0  0  0  0  0  0  0  0
    0.0000    0.0000    0.0000 C   0  0  0  0  0  0  0  0  0  0  0  0
    0.0000    0.0000    0.0000 C   0  0  0  0  0  0  0  0  0  0  0  0
    0.0000    0.0000    0.0000 C   0  0  0  0  0  0  0  0  0  0  0  0
    0.0000    0.0000    0.0000 C   0  0  0  0  0  0  0  0  0  0  0  0
    0.0000    0.0000    0.0000 C   0  0  0  0  0  0  0  0  0  0  0  0
    0.0000    0.0000    0.0000 C   0  0  0  0  0  0  0  0  0  0  0  0
    0.0000    0.0000    0.0000 C   0  0  0  0  0  0  0  0  0  0  0  0
    0.0000    0.0000    0.0000 O   0  0  0  0  0  0  0  0  0  0  0  0
    0.0000    0.0000    0.0000 N   0  0  0  0  0  0  0  0  0  0  0  0
    0.0000    0.0000    0.0000 C   0  0  0  0  0  0  0  0  0  0  0  0
    0.0000    0.0000    0.0000 N   0  0  0  0  0  0  0  0  0  0  0  0
    0.0000    0.0000    0.0000 N   0  0  0  0  0  0  0  0  0  0  0  0
    0.0000    0.0000    0.0000 C   0  0  0  0  0  0  0  0  0  0  0  0
    0.0000    0.0000    0.0000 S   0  0  0  0  0  0  0  0  0  0  0  0
    0.0000    0.0000    0.0000 S   0  0  0  0  0  0  0  0  0  0  0  0
    0.0000    0.0000    0.0000 O   0  0  0  0  0  0  0  0  0  0  0  0
    0.0000    0.0000    0.0000 O   0  0  0  0  0  0  0  0  0  0  0  0
    0.0000    0.0000    0.0000 N   0  0  0  0  0  0  0  0  0  0  0  0
  1  2  1  0
  2  3  1  0
  3  4  1  0
  4  5  2  0
  4  6  1  0
  6  7  1  0
  7  8  2  0
  8  9  1  0
  9 10  1  0
 10 11  2  0
 11 12  1  0
 12 13  2  0
 13 14  1  0
 14 15  1  0
 15 16  1  0
 16 17  2  3
 17 18  1  0
 18 19  2  0
 18 20  1  0
 20 21  2  0
 21 22  1  0
 22 23  2  0
 23 24  1  0
 24 25  2  0
 17 26  1  0
 26 27  2  0
 26 28  1  0
 28 29  2  0
 29 30  1  0
 30 31  2  0
 31 32  1  0
 32 33  2  0
 14 34  2  0
  9 35  1  0
 35 36  1  0
 36 37  2  0
 37 38  1  0
 38 39  2  0
 39 40  1  0
 40 41  2  0
  7 42  1  0
 42 43  2  0
 42 44  1  0
 44 45  1  0
 45 46  2  0
 46 47  1  0
 47 48  2  0
 48 49  1  0
 48 50  1  0
 50 51  2  0
 50 52  2  0
 50 53  1  0
 35  6  2  0
 34 10  1  0
 25 20  1  0
 33 28  1  0
 41 36  1  0
 49 45  1  0
M  END
>  <pIC50>  (433) 
6.525

>  <ChEMBL_ID>  (433) 
CHEMBL1276019

>  <document_journal>  (433) 
Eur. J. Med. Chem.

>  <bao_endpoint>  (433) 
BAO_0000190

>  <potential_duplicate>  (433) 
False

>  <uo_units>  (433) 
UO_0000065

>  <canonical_smiles>  (433) 
CCOC(=O)c1c(nn(c2cccc(NN=C(C(=O)c3ccccc3)C(=O)c4ccccc4)c2)c1c5ccccc5)C(=O)Nc6nnc(s6)S(=O)(=O)N

>  <parent_molecule_chembl_id>  (433) 
CHEMBL1276019

>  <assay_type>  (433) 
B

>  <src_id>  (433) 
1

>  <ligand_efficiency>  (433) 
{u'le': u'0.17', u'bei': u'8.79', u'sei': u'2.59', u'lle': u'0.56'}

>  <standard_flag>  (433) 
True

>  <molecule_chembl_id>  (433) 
CHEMBL1276019

>  <target_organism>  (433) 
Homo sapiens

>  <standard_units>  (433) 
nM

>  <record_id>  (433) 
969063

>  <document_chembl_id>  (433) 
CHEMBL1275267

>  <bao_format>  (433) 
BAO_0000357

>  <data_validity_description>  (433) 
None

>  <activity_id>  (433) 
3533534

>  <standard_type>  (433) 
IC50

>  <target_chembl_id>  (433) 
CHEMBL205

>  <data_validity_comment>  (433) 
None

>  <published_value>  (433) 
0.26

>  <document_year>  (433) 
2010

>  <target_pref_name>  (433) 
Carbonic anhydrase II

>  <assay_chembl_id>  (433) 
CHEMBL1285701

>  <standard_relation>  (433) 
=

>  <assay_description>  (433) 
Inhibition of human carbonic anhydrase 2 esterase activity by spectrophotometry

>  <published_relation>  (433) 
=

>  <standard_value>  (433) 
260

>  <qudt_units>  (433) 
http://www.openphacts.org/units/Nanomolar

>  <target_tax_id>  (433) 
9606

>  <bao_label>  (433) 
single protein format

>  <published_units>  (433) 
uM

>  <pchembl_value>  (433) 
6.59

>  <published_type>  (433) 
IC50

>  <activity_comment>  (433) 
None

$$$$

     RDKit          

 50 54  0  0  0  0  0  0  0  0999 V2000
    0.0000    0.0000    0.0000 C   0  0  0  0  0  0  0  0  0  0  0  0
    0.0000    0.0000    0.0000 C   0  0  0  0  0  0  0  0  0  0  0  0
    0.0000    0.0000    0.0000 O   0  0  0  0  0  0  0  0  0  0  0  0
    0.0000    0.0000    0.0000 C   0  0  0  0  0  0  0  0  0  0  0  0
    0.0000    0.0000    0.0000 O   0  0  0  0  0  0  0  0  0  0  0  0
    0.0000    0.0000    0.0000 C   0  0  0  0  0  0  0  0  0  0  0  0
    0.0000    0.0000    0.0000 N   0  0  0  0  0  0  0  0  0  0  0  0
    0.0000    0.0000    0.0000 N   0  0  0  0  0  0  0  0  0  0  0  0
    0.0000    0.0000    0.0000 C   0  0  0  0  0  0  0  0  0  0  0  0
    0.0000    0.0000    0.0000 C   0  0  0  0  0  0  0  0  0  0  0  0
    0.0000    0.0000    0.0000 C   0  0  0  0  0  0  0  0  0  0  0  0
    0.0000    0.0000    0.0000 C   0  0  0  0  0  0  0  0  0  0  0  0
    0.0000    0.0000    0.0000 C   0  0  0  0  0  0  0  0  0  0  0  0
    0.0000    0.0000    0.0000 C   0  0  0  0  0  0  0  0  0  0  0  0
    0.0000    0.0000    0.0000 N   0  0  0  0  0  0  0  0  0  0  0  0
    0.0000    0.0000    0.0000 N   0  0  0  0  0  0  0  0  0  0  0  0
    0.0000    0.0000    0.0000 C   0  0  0  0  0  0  0  0  0  0  0  0
    0.0000    0.0000    0.0000 C   0  0  0  0  0  0  0  0  0  0  0  0
    0.0000    0.0000    0.0000 O   0  0  0  0  0  0  0  0  0  0  0  0
    0.0000    0.0000    0.0000 N   0  0  0  0  0  0  0  0  0  0  0  0
    0.0000    0.0000    0.0000 C   0  0  0  0  0  0  0  0  0  0  0  0
    0.0000    0.0000    0.0000 N   0  0  0  0  0  0  0  0  0  0  0  0
    0.0000    0.0000    0.0000 N   0  0  0  0  0  0  0  0  0  0  0  0
    0.0000    0.0000    0.0000 C   0  0  0  0  0  0  0  0  0  0  0  0
    0.0000    0.0000    0.0000 S   0  0  0  0  0  0  0  0  0  0  0  0
    0.0000    0.0000    0.0000 S   0  0  0  0  0  0  0  0  0  0  0  0
    0.0000    0.0000    0.0000 O   0  0  0  0  0  0  0  0  0  0  0  0
    0.0000    0.0000    0.0000 O   0  0  0  0  0  0  0  0  0  0  0  0
    0.0000    0.0000    0.0000 N   0  0  0  0  0  0  0  0  0  0  0  0
    0.0000    0.0000    0.0000 C   0  0  0  0  0  0  0  0  0  0  0  0
    0.0000    0.0000    0.0000 C   0  0  0  0  0  0  0  0  0  0  0  0
    0.0000    0.0000    0.0000 O   0  0  0  0  0  0  0  0  0  0  0  0
    0.0000    0.0000    0.0000 O   0  0  0  0  0  0  0  0  0  0  0  0
    0.0000    0.0000    0.0000 C   0  0  0  0  0  0  0  0  0  0  0  0
    0.0000    0.0000    0.0000 C   0  0  0  0  0  0  0  0  0  0  0  0
    0.0000    0.0000    0.0000 C   0  0  0  0  0  0  0  0  0  0  0  0
    0.0000    0.0000    0.0000 C   0  0  0  0  0  0  0  0  0  0  0  0
    0.0000    0.0000    0.0000 C   0  0  0  0  0  0  0  0  0  0  0  0
    0.0000    0.0000    0.0000 C   0  0  0  0  0  0  0  0  0  0  0  0
    0.0000    0.0000    0.0000 C   0  0  0  0  0  0  0  0  0  0  0  0
    0.0000    0.0000    0.0000 C   0  0  0  0  0  0  0  0  0  0  0  0
    0.0000    0.0000    0.0000 C   0  0  0  0  0  0  0  0  0  0  0  0
    0.0000    0.0000    0.0000 C   0  0  0  0  0  0  0  0  0  0  0  0
    0.0000    0.0000    0.0000 O   0  0  0  0  0  0  0  0  0  0  0  0
    0.0000    0.0000    0.0000 C   0  0  0  0  0  0  0  0  0  0  0  0
    0.0000    0.0000    0.0000 C   0  0  0  0  0  0  0  0  0  0  0  0
    0.0000    0.0000    0.0000 C   0  0  0  0  0  0  0  0  0  0  0  0
    0.0000    0.0000    0.0000 C   0  0  0  0  0  0  0  0  0  0  0  0
    0.0000    0.0000    0.0000 C   0  0  0  0  0  0  0  0  0  0  0  0
    0.0000    0.0000    0.0000 C   0  0  0  0  0  0  0  0  0  0  0  0
  1  2  1  0
  2  3  1  0
  3  4  1  0
  4  5  2  0
  4  6  1  0
  6  7  2  0
  7  8  1  0
  8  9  1  0
  9 10  2  0
 10 11  1  0
 11 12  2  0
 12 13  1  0
 13 14  2  0
 13 15  1  0
 15 16  1  0
 16 17  2  0
 17 18  1  0
 18 19  2  0
 18 20  1  0
 20 21  1  0
 21 22  2  0
 22 23  1  0
 23 24  2  0
 24 25  1  0
 24 26  1  0
 26 27  2  0
 26 28  2  0
 26 29  1  0
 17 30  1  0
 30 31  1  0
 31 32  2  0
 31 33  1  0
 33 34  1  0
 34 35  1  0
 30 36  2  0
 36 37  1  0
 37 38  2  0
 38 39  1  0
 39 40  2  0
 40 41  1  0
 41 42  2  0
  6 43  1  0
 43 44  2  0
 43 45  1  0
 45 46  2  0
 46 47  1  0
 47 48  2  0
 48 49  1  0
 49 50  2  0
 14  9  1  0
 36 15  1  0
 25 21  1  0
 42 37  1  0
 50 45  1  0
M  END
>  <pIC50>  (434) 
5.935

>  <ChEMBL_ID>  (434) 
CHEMBL1276020

>  <document_journal>  (434) 
Eur. J. Med. Chem.

>  <bao_endpoint>  (434) 
BAO_0000190

>  <potential_duplicate>  (434) 
False

>  <uo_units>  (434) 
UO_0000065

>  <canonical_smiles>  (434) 
CCOC(=O)\C(=N\Nc1cccc(c1)n2nc(C(=O)Nc3nnc(s3)S(=O)(=O)N)c(C(=O)OCC)c2c4ccccc4)\C(=O)c5ccccc5

>  <parent_molecule_chembl_id>  (434) 
CHEMBL1276020

>  <assay_type>  (434) 
B

>  <src_id>  (434) 
1

>  <ligand_efficiency>  (434) 
{u'le': u'0.17', u'bei': u'8.69', u'sei': u'2.36', u'lle': u'1.4'}

>  <standard_flag>  (434) 
True

>  <molecule_chembl_id>  (434) 
CHEMBL1276020

>  <target_organism>  (434) 
Homo sapiens

>  <standard_units>  (434) 
nM

>  <record_id>  (434) 
969064

>  <document_chembl_id>  (434) 
CHEMBL1275267

>  <bao_format>  (434) 
BAO_0000357

>  <data_validity_description>  (434) 
None

>  <activity_id>  (434) 
3533535

>  <standard_type>  (434) 
IC50

>  <target_chembl_id>  (434) 
CHEMBL205

>  <data_validity_comment>  (434) 
None

>  <published_value>  (434) 
0.59

>  <document_year>  (434) 
2010

>  <target_pref_name>  (434) 
Carbonic anhydrase II

>  <assay_chembl_id>  (434) 
CHEMBL1285701

>  <standard_relation>  (434) 
=

>  <assay_description>  (434) 
Inhibition of human carbonic anhydrase 2 esterase activity by spectrophotometry

>  <published_relation>  (434) 
=

>  <standard_value>  (434) 
590

>  <qudt_units>  (434) 
http://www.openphacts.org/units/Nanomolar

>  <target_tax_id>  (434) 
9606

>  <bao_label>  (434) 
single protein format

>  <published_units>  (434) 
uM

>  <pchembl_value>  (434) 
6.23

>  <published_type>  (434) 
IC50

>  <activity_comment>  (434) 
None

$$$$

     RDKit          

 45 48  0  0  0  0  0  0  0  0999 V2000
    0.0000    0.0000    0.0000 C   0  0  0  0  0  0  0  0  0  0  0  0
    0.0000    0.0000    0.0000 C   0  0  0  0  0  0  0  0  0  0  0  0
    0.0000    0.0000    0.0000 O   0  0  0  0  0  0  0  0  0  0  0  0
    0.0000    0.0000    0.0000 C   0  0  0  0  0  0  0  0  0  0  0  0
    0.0000    0.0000    0.0000 O   0  0  0  0  0  0  0  0  0  0  0  0
    0.0000    0.0000    0.0000 C   0  0  0  0  0  0  0  0  0  0  0  0
    0.0000    0.0000    0.0000 N   0  0  0  0  0  0  0  0  0  0  0  0
    0.0000    0.0000    0.0000 N   0  0  0  0  0  0  0  0  0  0  0  0
    0.0000    0.0000    0.0000 C   0  0  0  0  0  0  0  0  0  0  0  0
    0.0000    0.0000    0.0000 C   0  0  0  0  0  0  0  0  0  0  0  0
    0.0000    0.0000    0.0000 C   0  0  0  0  0  0  0  0  0  0  0  0
    0.0000    0.0000    0.0000 C   0  0  0  0  0  0  0  0  0  0  0  0
    0.0000    0.0000    0.0000 C   0  0  0  0  0  0  0  0  0  0  0  0
    0.0000    0.0000    0.0000 C   0  0  0  0  0  0  0  0  0  0  0  0
    0.0000    0.0000    0.0000 N   0  0  0  0  0  0  0  0  0  0  0  0
    0.0000    0.0000    0.0000 N   0  0  0  0  0  0  0  0  0  0  0  0
    0.0000    0.0000    0.0000 C   0  0  0  0  0  0  0  0  0  0  0  0
    0.0000    0.0000    0.0000 C   0  0  0  0  0  0  0  0  0  0  0  0
    0.0000    0.0000    0.0000 O   0  0  0  0  0  0  0  0  0  0  0  0
    0.0000    0.0000    0.0000 N   0  0  0  0  0  0  0  0  0  0  0  0
    0.0000    0.0000    0.0000 C   0  0  0  0  0  0  0  0  0  0  0  0
    0.0000    0.0000    0.0000 N   0  0  0  0  0  0  0  0  0  0  0  0
    0.0000    0.0000    0.0000 N   0  0  0  0  0  0  0  0  0  0  0  0
    0.0000    0.0000    0.0000 C   0  0  0  0  0  0  0  0  0  0  0  0
    0.0000    0.0000    0.0000 S   0  0  0  0  0  0  0  0  0  0  0  0
    0.0000    0.0000    0.0000 S   0  0  0  0  0  0  0  0  0  0  0  0
    0.0000    0.0000    0.0000 O   0  0  0  0  0  0  0  0  0  0  0  0
    0.0000    0.0000    0.0000 O   0  0  0  0  0  0  0  0  0  0  0  0
    0.0000    0.0000    0.0000 N   0  0  0  0  0  0  0  0  0  0  0  0
    0.0000    0.0000    0.0000 C   0  0  0  0  0  0  0  0  0  0  0  0
    0.0000    0.0000    0.0000 C   0  0  0  0  0  0  0  0  0  0  0  0
    0.0000    0.0000    0.0000 O   0  0  0  0  0  0  0  0  0  0  0  0
    0.0000    0.0000    0.0000 O   0  0  0  0  0  0  0  0  0  0  0  0
    0.0000    0.0000    0.0000 C   0  0  0  0  0  0  0  0  0  0  0  0
    0.0000    0.0000    0.0000 C   0  0  0  0  0  0  0  0  0  0  0  0
    0.0000    0.0000    0.0000 C   0  0  0  0  0  0  0  0  0  0  0  0
    0.0000    0.0000    0.0000 C   0  0  0  0  0  0  0  0  0  0  0  0
    0.0000    0.0000    0.0000 C   0  0  0  0  0  0  0  0  0  0  0  0
    0.0000    0.0000    0.0000 C   0  0  0  0  0  0  0  0  0  0  0  0
    0.0000    0.0000    0.0000 C   0  0  0  0  0  0  0  0  0  0  0  0
    0.0000    0.0000    0.0000 C   0  0  0  0  0  0  0  0  0  0  0  0
    0.0000    0.0000    0.0000 C   0  0  0  0  0  0  0  0  0  0  0  0
    0.0000    0.0000    0.0000 C   0  0  0  0  0  0  0  0  0  0  0  0
    0.0000    0.0000    0.0000 O   0  0  0  0  0  0  0  0  0  0  0  0
    0.0000    0.0000    0.0000 C   0  0  0  0  0  0  0  0  0  0  0  0
  1  2  1  0
  2  3  1  0
  3  4  1  0
  4  5  2  0
  4  6  1  0
  6  7  2  0
  7  8  1  0
  8  9  1  0
  9 10  2  0
 10 11  1  0
 11 12  2  0
 12 13  1  0
 13 14  2  0
 13 15  1  0
 15 16  1  0
 16 17  2  0
 17 18  1  0
 18 19  2  0
 18 20  1  0
 20 21  1  0
 21 22  2  0
 22 23  1  0
 23 24  2  0
 24 25  1  0
 24 26  1  0
 26 27  2  0
 26 28  2  0
 26 29  1  0
 17 30  1  0
 30 31  1  0
 31 32  2  0
 31 33  1  0
 33 34  1  0
 34 35  1  0
 30 36  2  0
 36 37  1  0
 37 38  2  0
 38 39  1  0
 39 40  2  0
 40 41  1  0
 41 42  2  0
  6 43  1  0
 43 44  2  0
 43 45  1  0
 14  9  1  0
 36 15  1  0
 25 21  1  0
 42 37  1  0
M  END
>  <pIC50>  (435) 
6.88

>  <ChEMBL_ID>  (435) 
CHEMBL1276021

>  <document_journal>  (435) 
Eur. J. Med. Chem.

>  <bao_endpoint>  (435) 
BAO_0000190

>  <potential_duplicate>  (435) 
False

>  <uo_units>  (435) 
UO_0000065

>  <canonical_smiles>  (435) 
CCOC(=O)\C(=N\Nc1cccc(c1)n2nc(C(=O)Nc3nnc(s3)S(=O)(=O)N)c(C(=O)OCC)c2c4ccccc4)\C(=O)C

>  <parent_molecule_chembl_id>  (435) 
CHEMBL1276021

>  <assay_type>  (435) 
B

>  <src_id>  (435) 
1

>  <ligand_efficiency>  (435) 
{u'le': u'0.21', u'bei': u'10.63', u'sei': u'2.64', u'lle': u'3.8'}

>  <standard_flag>  (435) 
True

>  <molecule_chembl_id>  (435) 
CHEMBL1276021

>  <target_organism>  (435) 
Homo sapiens

>  <standard_units>  (435) 
nM

>  <record_id>  (435) 
969065

>  <document_chembl_id>  (435) 
CHEMBL1275267

>  <bao_format>  (435) 
BAO_0000357

>  <data_validity_description>  (435) 
None

>  <activity_id>  (435) 
3533536

>  <standard_type>  (435) 
IC50

>  <target_chembl_id>  (435) 
CHEMBL205

>  <data_validity_comment>  (435) 
None

>  <published_value>  (435) 
0.11

>  <document_year>  (435) 
2010

>  <target_pref_name>  (435) 
Carbonic anhydrase II

>  <assay_chembl_id>  (435) 
CHEMBL1285701

>  <standard_relation>  (435) 
=

>  <assay_description>  (435) 
Inhibition of human carbonic anhydrase 2 esterase activity by spectrophotometry

>  <published_relation>  (435) 
=

>  <standard_value>  (435) 
110

>  <qudt_units>  (435) 
http://www.openphacts.org/units/Nanomolar

>  <target_tax_id>  (435) 
9606

>  <bao_label>  (435) 
single protein format

>  <published_units>  (435) 
uM

>  <pchembl_value>  (435) 
6.96

>  <published_type>  (435) 
IC50

>  <activity_comment>  (435) 
None

$$$$

     RDKit          

 47 50  0  0  0  0  0  0  0  0999 V2000
    0.0000    0.0000    0.0000 C   0  0  0  0  0  0  0  0  0  0  0  0
    0.0000    0.0000    0.0000 C   0  0  0  0  0  0  0  0  0  0  0  0
    0.0000    0.0000    0.0000 O   0  0  0  0  0  0  0  0  0  0  0  0
    0.0000    0.0000    0.0000 C   0  0  0  0  0  0  0  0  0  0  0  0
    0.0000    0.0000    0.0000 O   0  0  0  0  0  0  0  0  0  0  0  0
    0.0000    0.0000    0.0000 C   0  0  0  0  0  0  0  0  0  0  0  0
    0.0000    0.0000    0.0000 N   0  0  0  0  0  0  0  0  0  0  0  0
    0.0000    0.0000    0.0000 N   0  0  0  0  0  0  0  0  0  0  0  0
    0.0000    0.0000    0.0000 C   0  0  0  0  0  0  0  0  0  0  0  0
    0.0000    0.0000    0.0000 C   0  0  0  0  0  0  0  0  0  0  0  0
    0.0000    0.0000    0.0000 C   0  0  0  0  0  0  0  0  0  0  0  0
    0.0000    0.0000    0.0000 C   0  0  0  0  0  0  0  0  0  0  0  0
    0.0000    0.0000    0.0000 C   0  0  0  0  0  0  0  0  0  0  0  0
    0.0000    0.0000    0.0000 C   0  0  0  0  0  0  0  0  0  0  0  0
    0.0000    0.0000    0.0000 N   0  0  0  0  0  0  0  0  0  0  0  0
    0.0000    0.0000    0.0000 N   0  0  0  0  0  0  0  0  0  0  0  0
    0.0000    0.0000    0.0000 C   0  0  0  0  0  0  0  0  0  0  0  0
    0.0000    0.0000    0.0000 C   0  0  0  0  0  0  0  0  0  0  0  0
    0.0000    0.0000    0.0000 O   0  0  0  0  0  0  0  0  0  0  0  0
    0.0000    0.0000    0.0000 N   0  0  0  0  0  0  0  0  0  0  0  0
    0.0000    0.0000    0.0000 C   0  0  0  0  0  0  0  0  0  0  0  0
    0.0000    0.0000    0.0000 N   0  0  0  0  0  0  0  0  0  0  0  0
    0.0000    0.0000    0.0000 N   0  0  0  0  0  0  0  0  0  0  0  0
    0.0000    0.0000    0.0000 C   0  0  0  0  0  0  0  0  0  0  0  0
    0.0000    0.0000    0.0000 S   0  0  0  0  0  0  0  0  0  0  0  0
    0.0000    0.0000    0.0000 S   0  0  0  0  0  0  0  0  0  0  0  0
    0.0000    0.0000    0.0000 O   0  0  0  0  0  0  0  0  0  0  0  0
    0.0000    0.0000    0.0000 O   0  0  0  0  0  0  0  0  0  0  0  0
    0.0000    0.0000    0.0000 N   0  0  0  0  0  0  0  0  0  0  0  0
    0.0000    0.0000    0.0000 C   0  0  0  0  0  0  0  0  0  0  0  0
    0.0000    0.0000    0.0000 C   0  0  0  0  0  0  0  0  0  0  0  0
    0.0000    0.0000    0.0000 O   0  0  0  0  0  0  0  0  0  0  0  0
    0.0000    0.0000    0.0000 O   0  0  0  0  0  0  0  0  0  0  0  0
    0.0000    0.0000    0.0000 C   0  0  0  0  0  0  0  0  0  0  0  0
    0.0000    0.0000    0.0000 C   0  0  0  0  0  0  0  0  0  0  0  0
    0.0000    0.0000    0.0000 C   0  0  0  0  0  0  0  0  0  0  0  0
    0.0000    0.0000    0.0000 C   0  0  0  0  0  0  0  0  0  0  0  0
    0.0000    0.0000    0.0000 C   0  0  0  0  0  0  0  0  0  0  0  0
    0.0000    0.0000    0.0000 C   0  0  0  0  0  0  0  0  0  0  0  0
    0.0000    0.0000    0.0000 C   0  0  0  0  0  0  0  0  0  0  0  0
    0.0000    0.0000    0.0000 C   0  0  0  0  0  0  0  0  0  0  0  0
    0.0000    0.0000    0.0000 C   0  0  0  0  0  0  0  0  0  0  0  0
    0.0000    0.0000    0.0000 C   0  0  0  0  0  0  0  0  0  0  0  0
    0.0000    0.0000    0.0000 O   0  0  0  0  0  0  0  0  0  0  0  0
    0.0000    0.0000    0.0000 O   0  0  0  0  0  0  0  0  0  0  0  0
    0.0000    0.0000    0.0000 C   0  0  0  0  0  0  0  0  0  0  0  0
    0.0000    0.0000    0.0000 C   0  0  0  0  0  0  0  0  0  0  0  0
  1  2  1  0
  2  3  1  0
  3  4  1  0
  4  5  2  0
  4  6  1  0
  6  7  2  3
  7  8  1  0
  8  9  1  0
  9 10  2  0
 10 11  1  0
 11 12  2  0
 12 13  1  0
 13 14  2  0
 13 15  1  0
 15 16  1  0
 16 17  2  0
 17 18  1  0
 18 19  2  0
 18 20  1  0
 20 21  1  0
 21 22  2  0
 22 23  1  0
 23 24  2  0
 24 25  1  0
 24 26  1  0
 26 27  2  0
 26 28  2  0
 26 29  1  0
 17 30  1  0
 30 31  1  0
 31 32  2  0
 31 33  1  0
 33 34  1  0
 34 35  1  0
 30 36  2  0
 36 37  1  0
 37 38  2  0
 38 39  1  0
 39 40  2  0
 40 41  1  0
 41 42  2  0
  6 43  1  0
 43 44  2  0
 43 45  1  0
 45 46  1  0
 46 47  1  0
 14  9  1  0
 36 15  1  0
 25 21  1  0
 42 37  1  0
M  END
>  <pIC50>  (436) 
7.035

>  <ChEMBL_ID>  (436) 
CHEMBL1276022

>  <document_journal>  (436) 
Eur. J. Med. Chem.

>  <bao_endpoint>  (436) 
BAO_0000190

>  <potential_duplicate>  (436) 
False

>  <uo_units>  (436) 
UO_0000065

>  <canonical_smiles>  (436) 
CCOC(=O)C(=NNc1cccc(c1)n2nc(C(=O)Nc3nnc(s3)S(=O)(=O)N)c(C(=O)OCC)c2c4ccccc4)C(=O)OCC

>  <parent_molecule_chembl_id>  (436) 
CHEMBL1276022

>  <assay_type>  (436) 
B

>  <src_id>  (436) 
1

>  <ligand_efficiency>  (436) 
{u'le': u'0.2', u'bei': u'10.01', u'sei': u'2.51', u'lle': u'3.22'}

>  <standard_flag>  (436) 
True

>  <molecule_chembl_id>  (436) 
CHEMBL1276022

>  <target_organism>  (436) 
Homo sapiens

>  <standard_units>  (436) 
nM

>  <record_id>  (436) 
969066

>  <document_chembl_id>  (436) 
CHEMBL1275267

>  <bao_format>  (436) 
BAO_0000357

>  <data_validity_description>  (436) 
None

>  <activity_id>  (436) 
3533537

>  <standard_type>  (436) 
IC50

>  <target_chembl_id>  (436) 
CHEMBL205

>  <data_validity_comment>  (436) 
None

>  <published_value>  (436) 
0.14

>  <document_year>  (436) 
2010

>  <target_pref_name>  (436) 
Carbonic anhydrase II

>  <assay_chembl_id>  (436) 
CHEMBL1285701

>  <standard_relation>  (436) 
=

>  <assay_description>  (436) 
Inhibition of human carbonic anhydrase 2 esterase activity by spectrophotometry

>  <published_relation>  (436) 
=

>  <standard_value>  (436) 
140

>  <qudt_units>  (436) 
http://www.openphacts.org/units/Nanomolar

>  <target_tax_id>  (436) 
9606

>  <bao_label>  (436) 
single protein format

>  <published_units>  (436) 
uM

>  <pchembl_value>  (436) 
6.85

>  <published_type>  (436) 
IC50

>  <activity_comment>  (436) 
None

$$$$

     RDKit          

 47 50  0  0  0  0  0  0  0  0999 V2000
    0.0000    0.0000    0.0000 C   0  0  0  0  0  0  0  0  0  0  0  0
    0.0000    0.0000    0.0000 C   0  0  0  0  0  0  0  0  0  0  0  0
    0.0000    0.0000    0.0000 O   0  0  0  0  0  0  0  0  0  0  0  0
    0.0000    0.0000    0.0000 C   0  0  0  0  0  0  0  0  0  0  0  0
    0.0000    0.0000    0.0000 O   0  0  0  0  0  0  0  0  0  0  0  0
    0.0000    0.0000    0.0000 C   0  0  0  0  0  0  0  0  0  0  0  0
    0.0000    0.0000    0.0000 C   0  0  0  0  0  0  0  0  0  0  0  0
    0.0000    0.0000    0.0000 N   0  0  0  0  0  0  0  0  0  0  0  0
    0.0000    0.0000    0.0000 N   0  0  0  0  0  0  0  0  0  0  0  0
    0.0000    0.0000    0.0000 C   0  0  0  0  0  0  0  0  0  0  0  0
    0.0000    0.0000    0.0000 C   0  0  0  0  0  0  0  0  0  0  0  0
    0.0000    0.0000    0.0000 C   0  0  0  0  0  0  0  0  0  0  0  0
    0.0000    0.0000    0.0000 C   0  0  0  0  0  0  0  0  0  0  0  0
    0.0000    0.0000    0.0000 C   0  0  0  0  0  0  0  0  0  0  0  0
    0.0000    0.0000    0.0000 N   0  0  0  0  0  0  0  0  0  0  0  0
    0.0000    0.0000    0.0000 N   0  0  0  0  0  0  0  0  0  0  0  0
    0.0000    0.0000    0.0000 C   0  0  0  0  0  0  0  0  0  0  0  0
    0.0000    0.0000    0.0000 C   0  0  0  0  0  0  0  0  0  0  0  0
    0.0000    0.0000    0.0000 O   0  0  0  0  0  0  0  0  0  0  0  0
    0.0000    0.0000    0.0000 C   0  0  0  0  0  0  0  0  0  0  0  0
    0.0000    0.0000    0.0000 C   0  0  0  0  0  0  0  0  0  0  0  0
    0.0000    0.0000    0.0000 O   0  0  0  0  0  0  0  0  0  0  0  0
    0.0000    0.0000    0.0000 O   0  0  0  0  0  0  0  0  0  0  0  0
    0.0000    0.0000    0.0000 C   0  0  0  0  0  0  0  0  0  0  0  0
    0.0000    0.0000    0.0000 C   0  0  0  0  0  0  0  0  0  0  0  0
    0.0000    0.0000    0.0000 C   0  0  0  0  0  0  0  0  0  0  0  0
    0.0000    0.0000    0.0000 C   0  0  0  0  0  0  0  0  0  0  0  0
    0.0000    0.0000    0.0000 C   0  0  0  0  0  0  0  0  0  0  0  0
    0.0000    0.0000    0.0000 C   0  0  0  0  0  0  0  0  0  0  0  0
    0.0000    0.0000    0.0000 C   0  0  0  0  0  0  0  0  0  0  0  0
    0.0000    0.0000    0.0000 C   0  0  0  0  0  0  0  0  0  0  0  0
    0.0000    0.0000    0.0000 C   0  0  0  0  0  0  0  0  0  0  0  0
    0.0000    0.0000    0.0000 C   0  0  0  0  0  0  0  0  0  0  0  0
    0.0000    0.0000    0.0000 C   0  0  0  0  0  0  0  0  0  0  0  0
    0.0000    0.0000    0.0000 C   0  0  0  0  0  0  0  0  0  0  0  0
    0.0000    0.0000    0.0000 C   0  0  0  0  0  0  0  0  0  0  0  0
    0.0000    0.0000    0.0000 O   0  0  0  0  0  0  0  0  0  0  0  0
    0.0000    0.0000    0.0000 N   0  0  0  0  0  0  0  0  0  0  0  0
    0.0000    0.0000    0.0000 C   0  0  0  0  0  0  0  0  0  0  0  0
    0.0000    0.0000    0.0000 N   0  0  0  0  0  0  0  0  0  0  0  0
    0.0000    0.0000    0.0000 N   0  0  0  0  0  0  0  0  0  0  0  0
    0.0000    0.0000    0.0000 C   0  0  0  0  0  0  0  0  0  0  0  0
    0.0000    0.0000    0.0000 S   0  0  0  0  0  0  0  0  0  0  0  0
    0.0000    0.0000    0.0000 S   0  0  0  0  0  0  0  0  0  0  0  0
    0.0000    0.0000    0.0000 O   0  0  0  0  0  0  0  0  0  0  0  0
    0.0000    0.0000    0.0000 O   0  0  0  0  0  0  0  0  0  0  0  0
    0.0000    0.0000    0.0000 N   0  0  0  0  0  0  0  0  0  0  0  0
  1  2  1  0
  2  3  1  0
  3  4  1  0
  4  5  2  0
  4  6  1  0
  6  7  1  0
  7  8  2  0
  8  9  1  0
  9 10  1  0
 10 11  2  0
 11 12  1  0
 12 13  2  0
 13 14  1  0
 14 15  1  0
 15 16  1  0
 16 17  2  0
 17 18  1  0
 18 19  2  0
 18 20  1  0
 17 21  1  0
 21 22  2  0
 21 23  1  0
 23 24  1  0
 24 25  1  0
 24 26  1  0
 24 27  1  0
 14 28  2  0
  9 29  1  0
 29 30  1  0
 30 31  2  0
 31 32  1  0
 32 33  2  0
 33 34  1  0
 34 35  2  0
  7 36  1  0
 36 37  2  0
 36 38  1  0
 38 39  1  0
 39 40  2  0
 40 41  1  0
 41 42  2  0
 42 43  1  0
 42 44  1  0
 44 45  2  0
 44 46  2  0
 44 47  1  0
 29  6  2  0
 28 10  1  0
 35 30  1  0
 43 39  1  0
M  END
>  <pIC50>  (437) 
7.1

>  <ChEMBL_ID>  (437) 
CHEMBL1276023

>  <document_journal>  (437) 
Eur. J. Med. Chem.

>  <bao_endpoint>  (437) 
BAO_0000190

>  <potential_duplicate>  (437) 
False

>  <uo_units>  (437) 
UO_0000065

>  <canonical_smiles>  (437) 
CCOC(=O)c1c(nn(c2cccc(N\N=C(\C(=O)C)/C(=O)OC(C)(C)C)c2)c1c3ccccc3)C(=O)Nc4nnc(s4)S(=O)(=O)N

>  <parent_molecule_chembl_id>  (437) 
CHEMBL1276023

>  <assay_type>  (437) 
B

>  <src_id>  (437) 
1

>  <ligand_efficiency>  (437) 
{u'le': u'0.2', u'bei': u'9.95', u'sei': u'2.58', u'lle': u'3.06'}

>  <standard_flag>  (437) 
True

>  <molecule_chembl_id>  (437) 
CHEMBL1276023

>  <target_organism>  (437) 
Homo sapiens

>  <standard_units>  (437) 
nM

>  <record_id>  (437) 
969067

>  <document_chembl_id>  (437) 
CHEMBL1275267

>  <bao_format>  (437) 
BAO_0000357

>  <data_validity_description>  (437) 
None

>  <activity_id>  (437) 
3533538

>  <standard_type>  (437) 
IC50

>  <target_chembl_id>  (437) 
CHEMBL205

>  <data_validity_comment>  (437) 
None

>  <published_value>  (437) 
0.16

>  <document_year>  (437) 
2010

>  <target_pref_name>  (437) 
Carbonic anhydrase II

>  <assay_chembl_id>  (437) 
CHEMBL1285701

>  <standard_relation>  (437) 
=

>  <assay_description>  (437) 
Inhibition of human carbonic anhydrase 2 esterase activity by spectrophotometry

>  <published_relation>  (437) 
=

>  <standard_value>  (437) 
160

>  <qudt_units>  (437) 
http://www.openphacts.org/units/Nanomolar

>  <target_tax_id>  (437) 
9606

>  <bao_label>  (437) 
single protein format

>  <published_units>  (437) 
uM

>  <pchembl_value>  (437) 
6.8

>  <published_type>  (437) 
IC50

>  <activity_comment>  (437) 
None

$$$$

     RDKit          

 42 46  0  0  0  0  0  0  0  0999 V2000
    0.0000    0.0000    0.0000 C   0  0  0  0  0  0  0  0  0  0  0  0
    0.0000    0.0000    0.0000 C   0  0  0  0  0  0  0  0  0  0  0  0
    0.0000    0.0000    0.0000 O   0  0  0  0  0  0  0  0  0  0  0  0
    0.0000    0.0000    0.0000 C   0  0  0  0  0  0  0  0  0  0  0  0
    0.0000    0.0000    0.0000 O   0  0  0  0  0  0  0  0  0  0  0  0
    0.0000    0.0000    0.0000 C   0  0  0  0  0  0  0  0  0  0  0  0
    0.0000    0.0000    0.0000 C   0  0  0  0  0  0  0  0  0  0  0  0
    0.0000    0.0000    0.0000 N   0  0  0  0  0  0  0  0  0  0  0  0
    0.0000    0.0000    0.0000 N   0  0  0  0  0  0  0  0  0  0  0  0
    0.0000    0.0000    0.0000 C   0  0  0  0  0  0  0  0  0  0  0  0
    0.0000    0.0000    0.0000 C   0  0  0  0  0  0  0  0  0  0  0  0
    0.0000    0.0000    0.0000 C   0  0  0  0  0  0  0  0  0  0  0  0
    0.0000    0.0000    0.0000 C   0  0  0  0  0  0  0  0  0  0  0  0
    0.0000    0.0000    0.0000 C   0  0  0  0  0  0  0  0  0  0  0  0
    0.0000    0.0000    0.0000 C   0  0  0  0  0  0  0  0  0  0  0  0
    0.0000    0.0000    0.0000 C   0  0  0  0  0  0  0  0  0  0  0  0
    0.0000    0.0000    0.0000 C   0  0  0  0  0  0  0  0  0  0  0  0
    0.0000    0.0000    0.0000 C   0  0  0  0  0  0  0  0  0  0  0  0
    0.0000    0.0000    0.0000 N   0  0  0  0  0  0  0  0  0  0  0  0
    0.0000    0.0000    0.0000 C   0  0  0  0  0  0  0  0  0  0  0  0
    0.0000    0.0000    0.0000 C   0  0  0  0  0  0  0  0  0  0  0  0
    0.0000    0.0000    0.0000 O   0  0  0  0  0  0  0  0  0  0  0  0
    0.0000    0.0000    0.0000 C   0  0  0  0  0  0  0  0  0  0  0  0
    0.0000    0.0000    0.0000 C   0  0  0  0  0  0  0  0  0  0  0  0
    0.0000    0.0000    0.0000 C   0  0  0  0  0  0  0  0  0  0  0  0
    0.0000    0.0000    0.0000 C   0  0  0  0  0  0  0  0  0  0  0  0
    0.0000    0.0000    0.0000 C   0  0  0  0  0  0  0  0  0  0  0  0
    0.0000    0.0000    0.0000 C   0  0  0  0  0  0  0  0  0  0  0  0
    0.0000    0.0000    0.0000 C   0  0  0  0  0  0  0  0  0  0  0  0
    0.0000    0.0000    0.0000 C   0  0  0  0  0  0  0  0  0  0  0  0
    0.0000    0.0000    0.0000 C   0  0  0  0  0  0  0  0  0  0  0  0
    0.0000    0.0000    0.0000 O   0  0  0  0  0  0  0  0  0  0  0  0
    0.0000    0.0000    0.0000 N   0  0  0  0  0  0  0  0  0  0  0  0
    0.0000    0.0000    0.0000 C   0  0  0  0  0  0  0  0  0  0  0  0
    0.0000    0.0000    0.0000 N   0  0  0  0  0  0  0  0  0  0  0  0
    0.0000    0.0000    0.0000 N   0  0  0  0  0  0  0  0  0  0  0  0
    0.0000    0.0000    0.0000 C   0  0  0  0  0  0  0  0  0  0  0  0
    0.0000    0.0000    0.0000 S   0  0  0  0  0  0  0  0  0  0  0  0
    0.0000    0.0000    0.0000 S   0  0  0  0  0  0  0  0  0  0  0  0
    0.0000    0.0000    0.0000 O   0  0  0  0  0  0  0  0  0  0  0  0
    0.0000    0.0000    0.0000 O   0  0  0  0  0  0  0  0  0  0  0  0
    0.0000    0.0000    0.0000 N   0  0  0  0  0  0  0  0  0  0  0  0
  1  2  1  0
  2  3  1  0
  3  4  1  0
  4  5  2  0
  4  6  1  0
  6  7  1  0
  7  8  2  0
  8  9  1  0
  9 10  1  0
 10 11  2  0
 11 12  1  0
 12 13  2  0
 13 14  1  0
 14 15  2  0
 15 16  1  0
 16 17  2  0
 17 18  1  0
 17 19  1  0
 19 20  1  0
 20 21  1  0
 21 22  2  0
 21 23  1  0
  9 24  1  0
 24 25  1  0
 25 26  2  0
 26 27  1  0
 27 28  2  0
 28 29  1  0
 29 30  2  0
  7 31  1  0
 31 32  2  0
 31 33  1  0
 33 34  1  0
 34 35  2  0
 35 36  1  0
 36 37  2  0
 37 38  1  0
 37 39  1  0
 39 40  2  0
 39 41  2  0
 39 42  1  0
 24  6  2  0
 15 10  1  0
 19 14  1  0
 30 25  1  0
 38 34  1  0
M  END
>  <pIC50>  (438) 
6.86

>  <ChEMBL_ID>  (438) 
CHEMBL1276024

>  <document_journal>  (438) 
Eur. J. Med. Chem.

>  <bao_endpoint>  (438) 
BAO_0000190

>  <potential_duplicate>  (438) 
False

>  <uo_units>  (438) 
UO_0000065

>  <canonical_smiles>  (438) 
CCOC(=O)c1c(nn(c2cccc3c2cc(C)n3CC(=O)C)c1c4ccccc4)C(=O)Nc5nnc(s5)S(=O)(=O)N

>  <parent_molecule_chembl_id>  (438) 
CHEMBL1276024

>  <assay_type>  (438) 
B

>  <src_id>  (438) 
1

>  <ligand_efficiency>  (438) 
{u'le': u'0.23', u'bei': u'11.68', u'sei': u'3.26', u'lle': u'3.87'}

>  <standard_flag>  (438) 
True

>  <molecule_chembl_id>  (438) 
CHEMBL1276024

>  <target_organism>  (438) 
Homo sapiens

>  <standard_units>  (438) 
nM

>  <record_id>  (438) 
969068

>  <document_chembl_id>  (438) 
CHEMBL1275267

>  <bao_format>  (438) 
BAO_0000357

>  <data_validity_description>  (438) 
None

>  <activity_id>  (438) 
3533539

>  <standard_type>  (438) 
IC50

>  <target_chembl_id>  (438) 
CHEMBL205

>  <data_validity_comment>  (438) 
None

>  <published_value>  (438) 
0.08

>  <document_year>  (438) 
2010

>  <target_pref_name>  (438) 
Carbonic anhydrase II

>  <assay_chembl_id>  (438) 
CHEMBL1285701

>  <standard_relation>  (438) 
=

>  <assay_description>  (438) 
Inhibition of human carbonic anhydrase 2 esterase activity by spectrophotometry

>  <published_relation>  (438) 
=

>  <standard_value>  (438) 
80

>  <qudt_units>  (438) 
http://www.openphacts.org/units/Nanomolar

>  <target_tax_id>  (438) 
9606

>  <bao_label>  (438) 
single protein format

>  <published_units>  (438) 
uM

>  <pchembl_value>  (438) 
7.1

>  <published_type>  (438) 
IC50

>  <activity_comment>  (438) 
None

$$$$

     RDKit          

 28 28  0  0  0  0  0  0  0  0999 V2000
    0.0000    0.0000    0.0000 C   0  0  0  0  0  0  0  0  0  0  0  0
    0.0000    0.0000    0.0000 C   0  0  0  0  0  0  0  0  0  0  0  0
    0.0000    0.0000    0.0000 C   0  0  0  0  0  0  0  0  0  0  0  0
    0.0000    0.0000    0.0000 C   0  0  0  0  0  0  0  0  0  0  0  0
    0.0000    0.0000    0.0000 C   0  0  0  0  0  0  0  0  0  0  0  0
    0.0000    0.0000    0.0000 C   0  0  0  0  0  0  0  0  0  0  0  0
    0.0000    0.0000    0.0000 C   0  0  0  0  0  0  0  0  0  0  0  0
    0.0000    0.0000    0.0000 C   0  0  0  0  0  0  0  0  0  0  0  0
    0.0000    0.0000    0.0000 O   0  0  0  0  0  0  0  0  0  0  0  0
    0.0000    0.0000    0.0000 C   0  0  0  0  0  0  0  0  0  0  0  0
    0.0000    0.0000    0.0000 O   0  0  0  0  0  0  0  0  0  0  0  0
    0.0000    0.0000    0.0000 C   0  0  0  0  0  0  0  0  0  0  0  0
    0.0000    0.0000    0.0000 C   0  0  0  0  0  0  0  0  0  0  0  0
    0.0000    0.0000    0.0000 C   0  0  0  0  0  0  0  0  0  0  0  0
    0.0000    0.0000    0.0000 C   0  0  0  0  0  0  0  0  0  0  0  0
    0.0000    0.0000    0.0000 C   0  0  0  0  0  0  0  0  0  0  0  0
    0.0000    0.0000    0.0000 C   0  0  0  0  0  0  0  0  0  0  0  0
    0.0000    0.0000    0.0000 C   0  0  0  0  0  0  0  0  0  0  0  0
    0.0000    0.0000    0.0000 O   0  0  0  0  0  0  0  0  0  0  0  0
    0.0000    0.0000    0.0000 O   0  0  0  0  0  0  0  0  0  0  0  0
    0.0000    0.0000    0.0000 C   0  0  0  0  0  0  0  0  0  0  0  0
    0.0000    0.0000    0.0000 C   0  0  0  0  0  0  0  0  0  0  0  0
    0.0000    0.0000    0.0000 C   0  0  0  0  0  0  0  0  0  0  0  0
    0.0000    0.0000    0.0000 C   0  0  0  0  0  0  0  0  0  0  0  0
    0.0000    0.0000    0.0000 C   0  0  0  0  0  0  0  0  0  0  0  0
    0.0000    0.0000    0.0000 C   0  0  0  0  0  0  0  0  0  0  0  0
    0.0000    0.0000    0.0000 C   0  0  0  0  0  0  0  0  0  0  0  0
    0.0000    0.0000    0.0000 C   0  0  0  0  0  0  0  0  0  0  0  0
  1  2  1  0
  2  3  1  0
  3  4  1  0
  4  5  1  0
  5  6  1  0
  6  7  1  0
  5  8  1  0
  8  9  1  0
  9 10  1  0
 10 11  2  0
 10 12  1  0
 12 13  2  0
 13 14  1  0
 14 15  2  0
 15 16  1  0
 16 17  2  0
 17 18  1  0
 18 19  2  0
 18 20  1  0
 20 21  1  0
 21 22  1  0
 22 23  1  0
 23 24  1  0
 22 25  1  0
 25 26  1  0
 26 27  1  0
 27 28  1  0
 17 12  1  0
M  END
>  <pIC50>  (439) 
4.18

>  <ChEMBL_ID>  (439) 
CHEMBL402794

>  <document_journal>  (439) 
None

>  <bao_endpoint>  (439) 
BAO_0000190

>  <potential_duplicate>  (439) 
False

>  <uo_units>  (439) 
UO_0000065

>  <canonical_smiles>  (439) 
CCCC[C@@H](CC)COC(=O)c1ccccc1C(=O)OC[C@@H](CC)CCCC

>  <parent_molecule_chembl_id>  (439) 
CHEMBL402794

>  <assay_type>  (439) 
B

>  <src_id>  (439) 
15

>  <ligand_efficiency>  (439) 
{u'le': u'0.2', u'bei': u'10.69', u'sei': u'7.94', u'lle': u'-3.4'}

>  <standard_flag>  (439) 
True

>  <molecule_chembl_id>  (439) 
CHEMBL402794

>  <target_organism>  (439) 
Homo sapiens

>  <standard_units>  (439) 
nM

>  <record_id>  (439) 
1539553

>  <document_chembl_id>  (439) 
CHEMBL1909046

>  <bao_format>  (439) 
BAO_0000221

>  <data_validity_description>  (439) 
None

>  <activity_id>  (439) 
7605400

>  <standard_type>  (439) 
IC50

>  <target_chembl_id>  (439) 
CHEMBL205

>  <data_validity_comment>  (439) 
None

>  <published_value>  (439) 
66.906

>  <document_year>  (439) 
None

>  <target_pref_name>  (439) 
Carbonic anhydrase II

>  <assay_chembl_id>  (439) 
CHEMBL1909123

>  <standard_relation>  (439) 
=

>  <assay_description>  (439) 
DRUGMATRIX: Carbonic Anhydrase II enzyme inhibition (substrate: 4-Nitrophenyl acetate (4-NPA))

>  <published_relation>  (439) 
=

>  <standard_value>  (439) 
66906

>  <qudt_units>  (439) 
http://www.openphacts.org/units/Nanomolar

>  <target_tax_id>  (439) 
9606

>  <bao_label>  (439) 
tissue-based format

>  <published_units>  (439) 
uM

>  <pchembl_value>  (439) 
4.18

>  <published_type>  (439) 
IC50

>  <activity_comment>  (439) 
None

$$$$

     RDKit          

 22 24  0  0  0  0  0  0  0  0999 V2000
    0.0000    0.0000    0.0000 N   0  0  0  0  0  0  0  0  0  0  0  0
    0.0000    0.0000    0.0000 S   0  0  0  0  0  0  0  0  0  0  0  0
    0.0000    0.0000    0.0000 O   0  0  0  0  0  0  0  0  0  0  0  0
    0.0000    0.0000    0.0000 O   0  0  0  0  0  0  0  0  0  0  0  0
    0.0000    0.0000    0.0000 C   0  0  0  0  0  0  0  0  0  0  0  0
    0.0000    0.0000    0.0000 C   0  0  0  0  0  0  0  0  0  0  0  0
    0.0000    0.0000    0.0000 C   0  0  0  0  0  0  0  0  0  0  0  0
    0.0000    0.0000    0.0000 C   0  0  0  0  0  0  0  0  0  0  0  0
    0.0000    0.0000    0.0000 C   0  0  0  0  0  0  0  0  0  0  0  0
    0.0000    0.0000    0.0000 C   0  0  0  0  0  0  0  0  0  0  0  0
    0.0000    0.0000    0.0000 Cl  0  0  0  0  0  0  0  0  0  0  0  0
    0.0000    0.0000    0.0000 C   0  0  0  0  0  0  0  0  0  0  0  0
    0.0000    0.0000    0.0000 O   0  0  0  0  0  0  0  0  0  0  0  0
    0.0000    0.0000    0.0000 N   0  0  0  0  0  0  0  0  0  0  0  0
    0.0000    0.0000    0.0000 C   0  0  0  0  0  0  0  0  0  0  0  0
    0.0000    0.0000    0.0000 O   0  0  0  0  0  0  0  0  0  0  0  0
    0.0000    0.0000    0.0000 C   0  0  0  0  0  0  0  0  0  0  0  0
    0.0000    0.0000    0.0000 C   0  0  0  0  0  0  0  0  0  0  0  0
    0.0000    0.0000    0.0000 C   0  0  0  0  0  0  0  0  0  0  0  0
    0.0000    0.0000    0.0000 C   0  0  0  0  0  0  0  0  0  0  0  0
    0.0000    0.0000    0.0000 C   0  0  0  0  0  0  0  0  0  0  0  0
    0.0000    0.0000    0.0000 C   0  0  0  0  0  0  0  0  0  0  0  0
  1  2  1  0
  2  3  2  0
  2  4  2  0
  2  5  1  0
  5  6  2  0
  6  7  1  0
  7  8  2  0
  8  9  1  0
  9 10  2  0
 10 11  1  0
  7 12  1  0
 12 13  1  0
 12 14  1  0
 14 15  1  0
 15 16  2  0
 15 17  1  0
 17 18  2  0
 18 19  1  0
 19 20  2  0
 20 21  1  0
 21 22  2  0
 10  5  1  0
 22 12  1  0
 22 17  1  0
M  END
>  <pIC50>  (440) 
6.17

>  <ChEMBL_ID>  (440) 
CHEMBL1055

>  <document_journal>  (440) 
None

>  <bao_endpoint>  (440) 
BAO_0000190

>  <potential_duplicate>  (440) 
False

>  <uo_units>  (440) 
UO_0000065

>  <canonical_smiles>  (440) 
NS(=O)(=O)c1cc(ccc1Cl)C2(O)NC(=O)c3ccccc23

>  <parent_molecule_chembl_id>  (440) 
CHEMBL1055

>  <assay_type>  (440) 
B

>  <src_id>  (440) 
15

>  <ligand_efficiency>  (440) 
{u'le': u'0.38', u'bei': u'18.21', u'sei': u'5.23', u'lle': u'4.79'}

>  <standard_flag>  (440) 
True

>  <molecule_chembl_id>  (440) 
CHEMBL1055

>  <target_organism>  (440) 
Homo sapiens

>  <standard_units>  (440) 
nM

>  <record_id>  (440) 
1539609

>  <document_chembl_id>  (440) 
CHEMBL1909046

>  <bao_format>  (440) 
BAO_0000221

>  <data_validity_description>  (440) 
None

>  <activity_id>  (440) 
7684179

>  <standard_type>  (440) 
IC50

>  <target_chembl_id>  (440) 
CHEMBL205

>  <data_validity_comment>  (440) 
None

>  <published_value>  (440) 
0.677

>  <document_year>  (440) 
None

>  <target_pref_name>  (440) 
Carbonic anhydrase II

>  <assay_chembl_id>  (440) 
CHEMBL1909123

>  <standard_relation>  (440) 
=

>  <assay_description>  (440) 
DRUGMATRIX: Carbonic Anhydrase II enzyme inhibition (substrate: 4-Nitrophenyl acetate (4-NPA))

>  <published_relation>  (440) 
=

>  <standard_value>  (440) 
677

>  <qudt_units>  (440) 
http://www.openphacts.org/units/Nanomolar

>  <target_tax_id>  (440) 
9606

>  <bao_label>  (440) 
tissue-based format

>  <published_units>  (440) 
uM

>  <pchembl_value>  (440) 
6.17

>  <published_type>  (440) 
IC50

>  <activity_comment>  (440) 
None

$$$$

     RDKit          

 23 25  0  0  0  0  0  0  0  0999 V2000
    0.0000    0.0000    0.0000 C   0  0  0  0  0  0  0  0  0  0  0  0
    0.0000    0.0000    0.0000 C   0  0  0  0  0  0  0  0  0  0  0  0
    0.0000    0.0000    0.0000 C   0  0  0  0  0  0  0  0  0  0  0  0
    0.0000    0.0000    0.0000 O   0  0  0  0  0  0  0  0  0  0  0  0
    0.0000    0.0000    0.0000 C   0  0  0  0  0  0  0  0  0  0  0  0
    0.0000    0.0000    0.0000 C   0  0  0  0  0  0  0  0  0  0  0  0
    0.0000    0.0000    0.0000 C   0  0  0  0  0  0  0  0  0  0  0  0
    0.0000    0.0000    0.0000 C   0  0  0  0  0  0  0  0  0  0  0  0
    0.0000    0.0000    0.0000 C   0  0  0  0  0  0  0  0  0  0  0  0
    0.0000    0.0000    0.0000 C   0  0  0  0  0  0  0  0  0  0  0  0
    0.0000    0.0000    0.0000 S   0  0  0  0  0  0  0  0  0  0  0  0
    0.0000    0.0000    0.0000 C   0  0  0  0  0  0  0  0  0  0  0  0
    0.0000    0.0000    0.0000 O   0  0  0  0  0  0  0  0  0  0  0  0
    0.0000    0.0000    0.0000 N   0  0  0  0  0  0  0  0  0  0  0  0
    0.0000    0.0000    0.0000 C   0  0  0  0  0  0  0  0  0  0  0  0
    0.0000    0.0000    0.0000 O   0  0  0  0  0  0  0  0  0  0  0  0
    0.0000    0.0000    0.0000 C   0  0  0  0  0  0  0  0  0  0  0  0
    0.0000    0.0000    0.0000 C   0  0  0  0  0  0  0  0  0  0  0  0
    0.0000    0.0000    0.0000 C   0  0  0  0  0  0  0  0  0  0  0  0
    0.0000    0.0000    0.0000 C   0  0  0  0  0  0  0  0  0  0  0  0
    0.0000    0.0000    0.0000 C   0  0  0  0  0  0  0  0  0  0  0  0
    0.0000    0.0000    0.0000 C   0  0  0  0  0  0  0  0  0  0  0  0
    0.0000    0.0000    0.0000 C   0  0  0  0  0  0  0  0  0  0  0  0
  1  2  1  0
  2  3  1  0
  3  4  1  0
  4  5  1  0
  5  6  2  0
  6  7  1  0
  7  8  2  0
  8  9  1  0
  9 10  1  0
 10 11  1  0
 11 12  1  0
 12 13  2  0
 12 14  1  0
 14 15  1  0
 15 16  2  0
  8 17  1  0
 17 18  2  0
  2 19  1  0
 19 20  1  0
 20 21  1  0
 21 22  1  0
 22 23  1  0
 23  2  1  0
 18  5  1  0
 15 10  1  0
M  END
>  <pIC50>  (441) 
7.07

>  <ChEMBL_ID>  (441) 
CHEMBL7002

>  <document_journal>  (441) 
None

>  <bao_endpoint>  (441) 
BAO_0000190

>  <potential_duplicate>  (441) 
False

>  <uo_units>  (441) 
UO_0000065

>  <canonical_smiles>  (441) 
CC1(COc2ccc(CC3SC(=O)NC3=O)cc2)CCCCC1

>  <parent_molecule_chembl_id>  (441) 
CHEMBL7002

>  <assay_type>  (441) 
B

>  <src_id>  (441) 
15

>  <ligand_efficiency>  (441) 
{u'le': u'0.42', u'bei': u'21.19', u'sei': u'8.76', u'lle': u'2.54'}

>  <standard_flag>  (441) 
True

>  <molecule_chembl_id>  (441) 
CHEMBL7002

>  <target_organism>  (441) 
Homo sapiens

>  <standard_units>  (441) 
nM

>  <record_id>  (441) 
1539617

>  <document_chembl_id>  (441) 
CHEMBL1909046

>  <bao_format>  (441) 
BAO_0000221

>  <data_validity_description>  (441) 
None

>  <activity_id>  (441) 
7684323

>  <standard_type>  (441) 
IC50

>  <target_chembl_id>  (441) 
CHEMBL205

>  <data_validity_comment>  (441) 
None

>  <published_value>  (441) 
0.086

>  <document_year>  (441) 
None

>  <target_pref_name>  (441) 
Carbonic anhydrase II

>  <assay_chembl_id>  (441) 
CHEMBL1909123

>  <standard_relation>  (441) 
=

>  <assay_description>  (441) 
DRUGMATRIX: Carbonic Anhydrase II enzyme inhibition (substrate: 4-Nitrophenyl acetate (4-NPA))

>  <published_relation>  (441) 
=

>  <standard_value>  (441) 
86

>  <qudt_units>  (441) 
http://www.openphacts.org/units/Nanomolar

>  <target_tax_id>  (441) 
9606

>  <bao_label>  (441) 
tissue-based format

>  <published_units>  (441) 
uM

>  <pchembl_value>  (441) 
7.07

>  <published_type>  (441) 
IC50

>  <activity_comment>  (441) 
None

$$$$

     RDKit          

 25 28  0  0  0  0  0  0  0  0999 V2000
    0.0000    0.0000    0.0000 Cl  0  0  0  0  0  0  0  0  0  0  0  0
    0.0000    0.0000    0.0000 C   0  0  0  0  0  0  0  0  0  0  0  0
    0.0000    0.0000    0.0000 C   0  0  0  0  0  0  0  0  0  0  0  0
    0.0000    0.0000    0.0000 C   0  0  0  0  0  0  0  0  0  0  0  0
    0.0000    0.0000    0.0000 C   0  0  0  0  0  0  0  0  0  0  0  0
    0.0000    0.0000    0.0000 C   0  0  0  0  0  0  0  0  0  0  0  0
    0.0000    0.0000    0.0000 C   0  0  0  0  0  0  0  0  0  0  0  0
    0.0000    0.0000    0.0000 C   0  0  0  0  0  0  0  0  0  0  0  0
    0.0000    0.0000    0.0000 C   0  0  0  0  0  0  0  0  0  0  0  0
    0.0000    0.0000    0.0000 C   0  0  0  0  0  0  0  0  0  0  0  0
    0.0000    0.0000    0.0000 C   0  0  0  0  0  0  0  0  0  0  0  0
    0.0000    0.0000    0.0000 C   0  0  0  0  0  0  0  0  0  0  0  0
    0.0000    0.0000    0.0000 C   0  0  0  0  0  0  0  0  0  0  0  0
    0.0000    0.0000    0.0000 C   0  0  0  0  0  0  0  0  0  0  0  0
    0.0000    0.0000    0.0000 C   0  0  0  0  0  0  0  0  0  0  0  0
    0.0000    0.0000    0.0000 C   0  0  0  0  0  0  0  0  0  0  0  0
    0.0000    0.0000    0.0000 C   0  0  0  0  0  0  0  0  0  0  0  0
    0.0000    0.0000    0.0000 C   0  0  0  0  0  0  0  0  0  0  0  0
    0.0000    0.0000    0.0000 C   0  0  0  0  0  0  0  0  0  0  0  0
    0.0000    0.0000    0.0000 C   0  0  0  0  0  0  0  0  0  0  0  0
    0.0000    0.0000    0.0000 N   0  0  0  0  0  0  0  0  0  0  0  0
    0.0000    0.0000    0.0000 C   0  0  0  0  0  0  0  0  0  0  0  0
    0.0000    0.0000    0.0000 C   0  0  0  0  0  0  0  0  0  0  0  0
    0.0000    0.0000    0.0000 N   0  0  0  0  0  0  0  0  0  0  0  0
    0.0000    0.0000    0.0000 C   0  0  0  0  0  0  0  0  0  0  0  0
  1  2  1  0
  2  3  2  0
  3  4  1  0
  4  5  2  0
  5  6  1  0
  6  7  2  0
  7  8  1  0
  8  9  1  0
  9 10  2  0
 10 11  1  0
 11 12  2  0
 12 13  1  0
 13 14  2  0
  8 15  1  0
 15 16  2  0
 16 17  1  0
 17 18  2  0
 18 19  1  0
 19 20  2  0
  8 21  1  0
 21 22  1  0
 22 23  2  0
 23 24  1  0
 24 25  2  0
  7  2  1  0
 14  9  1  0
 20 15  1  0
 25 21  1  0
M  END
>  <pIC50>  (442) 
4.52

>  <ChEMBL_ID>  (442) 
CHEMBL104

>  <document_journal>  (442) 
None

>  <bao_endpoint>  (442) 
BAO_0000190

>  <potential_duplicate>  (442) 
False

>  <uo_units>  (442) 
UO_0000065

>  <canonical_smiles>  (442) 
Clc1ccccc1C(c2ccccc2)(c3ccccc3)n4ccnc4

>  <parent_molecule_chembl_id>  (442) 
CHEMBL104

>  <assay_type>  (442) 
B

>  <src_id>  (442) 
15

>  <ligand_efficiency>  (442) 
{u'le': u'0.25', u'bei': u'13.11', u'sei': u'25.37', u'lle': u'-0.7'}

>  <standard_flag>  (442) 
True

>  <molecule_chembl_id>  (442) 
CHEMBL104

>  <target_organism>  (442) 
Homo sapiens

>  <standard_units>  (442) 
nM

>  <record_id>  (442) 
1539645

>  <document_chembl_id>  (442) 
CHEMBL1909046

>  <bao_format>  (442) 
BAO_0000221

>  <data_validity_description>  (442) 
None

>  <activity_id>  (442) 
7697522

>  <standard_type>  (442) 
IC50

>  <target_chembl_id>  (442) 
CHEMBL205

>  <data_validity_comment>  (442) 
None

>  <published_value>  (442) 
30.103

>  <document_year>  (442) 
None

>  <target_pref_name>  (442) 
Carbonic anhydrase II

>  <assay_chembl_id>  (442) 
CHEMBL1909123

>  <standard_relation>  (442) 
=

>  <assay_description>  (442) 
DRUGMATRIX: Carbonic Anhydrase II enzyme inhibition (substrate: 4-Nitrophenyl acetate (4-NPA))

>  <published_relation>  (442) 
=

>  <standard_value>  (442) 
30103

>  <qudt_units>  (442) 
http://www.openphacts.org/units/Nanomolar

>  <target_tax_id>  (442) 
9606

>  <bao_label>  (442) 
tissue-based format

>  <published_units>  (442) 
uM

>  <pchembl_value>  (442) 
4.52

>  <published_type>  (442) 
IC50

>  <activity_comment>  (442) 
None

$$$$

     RDKit          

 25 27  0  0  0  0  0  0  0  0999 V2000
    0.0000    0.0000    0.0000 C   0  0  0  0  0  0  0  0  0  0  0  0
    0.0000    0.0000    0.0000 C   0  0  0  0  0  0  0  0  0  0  0  0
    0.0000    0.0000    0.0000 C   0  0  0  0  0  0  0  0  0  0  0  0
    0.0000    0.0000    0.0000 C   0  0  0  0  0  0  0  0  0  0  0  0
    0.0000    0.0000    0.0000 C   0  0  0  0  0  0  0  0  0  0  0  0
    0.0000    0.0000    0.0000 C   0  0  0  0  0  0  0  0  0  0  0  0
    0.0000    0.0000    0.0000 C   0  0  0  0  0  0  0  0  0  0  0  0
    0.0000    0.0000    0.0000 C   0  0  0  0  0  0  0  0  0  0  0  0
    0.0000    0.0000    0.0000 O   0  0  0  0  0  0  0  0  0  0  0  0
    0.0000    0.0000    0.0000 C   0  0  0  0  0  0  0  0  0  0  0  0
    0.0000    0.0000    0.0000 C   0  0  0  0  0  0  0  0  0  0  0  0
    0.0000    0.0000    0.0000 C   0  0  0  0  0  0  0  0  0  0  0  0
    0.0000    0.0000    0.0000 C   0  0  0  0  0  0  0  0  0  0  0  0
    0.0000    0.0000    0.0000 C   0  0  0  0  0  0  0  0  0  0  0  0
    0.0000    0.0000    0.0000 C   0  0  0  0  0  0  0  0  0  0  0  0
    0.0000    0.0000    0.0000 S   0  0  0  0  0  0  0  0  0  0  0  0
    0.0000    0.0000    0.0000 C   0  0  0  0  0  0  0  0  0  0  0  0
    0.0000    0.0000    0.0000 O   0  0  0  0  0  0  0  0  0  0  0  0
    0.0000    0.0000    0.0000 N   0  0  0  0  0  0  0  0  0  0  0  0
    0.0000    0.0000    0.0000 C   0  0  0  0  0  0  0  0  0  0  0  0
    0.0000    0.0000    0.0000 O   0  0  0  0  0  0  0  0  0  0  0  0
    0.0000    0.0000    0.0000 C   0  0  0  0  0  0  0  0  0  0  0  0
    0.0000    0.0000    0.0000 C   0  0  0  0  0  0  0  0  0  0  0  0
    0.0000    0.0000    0.0000 N   0  0  0  0  0  0  0  0  0  0  0  0
    0.0000    0.0000    0.0000 C   0  0  0  0  0  0  0  0  0  0  0  0
  1  2  1  0
  2  3  1  0
  3  4  2  0
  4  5  1  0
  5  6  2  0
  6  7  1  0
  7  8  1  0
  8  9  1  0
  9 10  1  0
 10 11  2  0
 11 12  1  0
 12 13  2  0
 13 14  1  0
 14 15  1  0
 15 16  1  0
 16 17  1  0
 17 18  2  0
 17 19  1  0
 19 20  1  0
 20 21  2  0
 13 22  1  0
 22 23  2  0
  6 24  1  0
 24 25  2  0
 25  3  1  0
 23 10  1  0
 20 15  1  0
M  END
>  <pIC50>  (443) 
6.94

>  <ChEMBL_ID>  (443) 
CHEMBL595

>  <document_journal>  (443) 
None

>  <bao_endpoint>  (443) 
BAO_0000190

>  <potential_duplicate>  (443) 
False

>  <uo_units>  (443) 
UO_0000065

>  <canonical_smiles>  (443) 
CCc1ccc(CCOc2ccc(CC3SC(=O)NC3=O)cc2)nc1

>  <parent_molecule_chembl_id>  (443) 
CHEMBL595

>  <assay_type>  (443) 
B

>  <src_id>  (443) 
15

>  <ligand_efficiency>  (443) 
{u'le': u'0.38', u'bei': u'19.48', u'sei': u'7.42', u'lle': u'3.03'}

>  <standard_flag>  (443) 
True

>  <molecule_chembl_id>  (443) 
CHEMBL595

>  <target_organism>  (443) 
Homo sapiens

>  <standard_units>  (443) 
nM

>  <record_id>  (443) 
1540057

>  <document_chembl_id>  (443) 
CHEMBL1909046

>  <bao_format>  (443) 
BAO_0000221

>  <data_validity_description>  (443) 
None

>  <activity_id>  (443) 
7730301

>  <standard_type>  (443) 
IC50

>  <target_chembl_id>  (443) 
CHEMBL205

>  <data_validity_comment>  (443) 
None

>  <published_value>  (443) 
0.114

>  <document_year>  (443) 
None

>  <target_pref_name>  (443) 
Carbonic anhydrase II

>  <assay_chembl_id>  (443) 
CHEMBL1909123

>  <standard_relation>  (443) 
=

>  <assay_description>  (443) 
DRUGMATRIX: Carbonic Anhydrase II enzyme inhibition (substrate: 4-Nitrophenyl acetate (4-NPA))

>  <published_relation>  (443) 
=

>  <standard_value>  (443) 
114

>  <qudt_units>  (443) 
http://www.openphacts.org/units/Nanomolar

>  <target_tax_id>  (443) 
9606

>  <bao_label>  (443) 
tissue-based format

>  <published_units>  (443) 
uM

>  <pchembl_value>  (443) 
6.94

>  <published_type>  (443) 
IC50

>  <activity_comment>  (443) 
None

$$$$

     RDKit          

 31 34  0  0  0  0  0  0  0  0999 V2000
    0.0000    0.0000    0.0000 C   0  0  0  0  0  0  0  0  0  0  0  0
    0.0000    0.0000    0.0000 C   0  0  0  0  0  0  0  0  0  0  0  0
    0.0000    0.0000    0.0000 C   0  0  0  0  0  0  0  0  0  0  0  0
    0.0000    0.0000    0.0000 C   0  0  0  0  0  0  0  0  0  0  0  0
    0.0000    0.0000    0.0000 C   0  0  0  0  0  0  0  0  0  0  0  0
    0.0000    0.0000    0.0000 O   0  0  0  0  0  0  0  0  0  0  0  0
    0.0000    0.0000    0.0000 C   0  0  0  0  0  0  0  0  0  0  0  0
    0.0000    0.0000    0.0000 C   0  0  0  0  0  0  0  0  0  0  0  0
    0.0000    0.0000    0.0000 C   0  0  0  0  0  0  0  0  0  0  0  0
    0.0000    0.0000    0.0000 O   0  0  0  0  0  0  0  0  0  0  0  0
    0.0000    0.0000    0.0000 C   0  0  0  0  0  0  0  0  0  0  0  0
    0.0000    0.0000    0.0000 C   0  0  0  0  0  0  0  0  0  0  0  0
    0.0000    0.0000    0.0000 C   0  0  0  0  0  0  0  0  0  0  0  0
    0.0000    0.0000    0.0000 C   0  0  0  0  0  0  0  0  0  0  0  0
    0.0000    0.0000    0.0000 C   0  0  0  0  0  0  0  0  0  0  0  0
    0.0000    0.0000    0.0000 C   0  0  0  0  0  0  0  0  0  0  0  0
    0.0000    0.0000    0.0000 S   0  0  0  0  0  0  0  0  0  0  0  0
    0.0000    0.0000    0.0000 C   0  0  0  0  0  0  0  0  0  0  0  0
    0.0000    0.0000    0.0000 O   0  0  0  0  0  0  0  0  0  0  0  0
    0.0000    0.0000    0.0000 N   0  0  0  0  0  0  0  0  0  0  0  0
    0.0000    0.0000    0.0000 C   0  0  0  0  0  0  0  0  0  0  0  0
    0.0000    0.0000    0.0000 O   0  0  0  0  0  0  0  0  0  0  0  0
    0.0000    0.0000    0.0000 C   0  0  0  0  0  0  0  0  0  0  0  0
    0.0000    0.0000    0.0000 C   0  0  0  0  0  0  0  0  0  0  0  0
    0.0000    0.0000    0.0000 C   0  0  0  0  0  0  0  0  0  0  0  0
    0.0000    0.0000    0.0000 C   0  0  0  0  0  0  0  0  0  0  0  0
    0.0000    0.0000    0.0000 C   0  0  0  0  0  0  0  0  0  0  0  0
    0.0000    0.0000    0.0000 C   0  0  0  0  0  0  0  0  0  0  0  0
    0.0000    0.0000    0.0000 C   0  0  0  0  0  0  0  0  0  0  0  0
    0.0000    0.0000    0.0000 C   0  0  0  0  0  0  0  0  0  0  0  0
    0.0000    0.0000    0.0000 O   0  0  0  0  0  0  0  0  0  0  0  0
  1  2  1  0
  2  3  2  0
  3  4  1  0
  3  5  1  0
  5  6  1  0
  6  7  1  0
  7  8  1  0
  7  9  1  0
  9 10  1  0
 10 11  1  0
 11 12  2  0
 12 13  1  0
 13 14  2  0
 14 15  1  0
 15 16  1  0
 16 17  1  0
 17 18  1  0
 18 19  2  0
 18 20  1  0
 20 21  1  0
 21 22  2  0
 14 23  1  0
 23 24  2  0
  7 25  1  0
 25 26  1  0
 26 27  1  0
 27 28  1  0
 28 29  1  0
 28 30  2  0
 30 31  1  0
 30  2  1  0
 27  5  2  0
 24 11  1  0
 21 16  1  0
M  END
>  <pIC50>  (444) 
6.01

>  <ChEMBL_ID>  (444) 
CHEMBL408

>  <document_journal>  (444) 
None

>  <bao_endpoint>  (444) 
BAO_0000190

>  <potential_duplicate>  (444) 
False

>  <uo_units>  (444) 
UO_0000065

>  <canonical_smiles>  (444) 
Cc1c(C)c2OC(C)(COc3ccc(CC4SC(=O)NC4=O)cc3)CCc2c(C)c1O

>  <parent_molecule_chembl_id>  (444) 
CHEMBL408

>  <assay_type>  (444) 
B

>  <src_id>  (444) 
15

>  <ligand_efficiency>  (444) 
{u'le': u'0.26', u'bei': u'13.62', u'sei': u'5.46', u'lle': u'0.33'}

>  <standard_flag>  (444) 
True

>  <molecule_chembl_id>  (444) 
CHEMBL408

>  <target_organism>  (444) 
Homo sapiens

>  <standard_units>  (444) 
nM

>  <record_id>  (444) 
1540252

>  <document_chembl_id>  (444) 
CHEMBL1909046

>  <bao_format>  (444) 
BAO_0000221

>  <data_validity_description>  (444) 
None

>  <activity_id>  (444) 
7788965

>  <standard_type>  (444) 
IC50

>  <target_chembl_id>  (444) 
CHEMBL205

>  <data_validity_comment>  (444) 
None

>  <published_value>  (444) 
0.97

>  <document_year>  (444) 
None

>  <target_pref_name>  (444) 
Carbonic anhydrase II

>  <assay_chembl_id>  (444) 
CHEMBL1909123

>  <standard_relation>  (444) 
=

>  <assay_description>  (444) 
DRUGMATRIX: Carbonic Anhydrase II enzyme inhibition (substrate: 4-Nitrophenyl acetate (4-NPA))

>  <published_relation>  (444) 
=

>  <standard_value>  (444) 
970

>  <qudt_units>  (444) 
http://www.openphacts.org/units/Nanomolar

>  <target_tax_id>  (444) 
9606

>  <bao_label>  (444) 
tissue-based format

>  <published_units>  (444) 
uM

>  <pchembl_value>  (444) 
6.01

>  <published_type>  (444) 
IC50

>  <activity_comment>  (444) 
None

$$$$

     RDKit          

 25 27  0  0  0  0  0  0  0  0999 V2000
    0.0000    0.0000    0.0000 C   0  0  0  0  0  0  0  0  0  0  0  0
    0.0000    0.0000    0.0000 N   0  0  0  0  0  0  0  0  0  0  0  0
    0.0000    0.0000    0.0000 C   0  0  0  0  0  0  0  0  0  0  0  0
    0.0000    0.0000    0.0000 C   0  0  0  0  0  0  0  0  0  0  0  0
    0.0000    0.0000    0.0000 O   0  0  0  0  0  0  0  0  0  0  0  0
    0.0000    0.0000    0.0000 C   0  0  0  0  0  0  0  0  0  0  0  0
    0.0000    0.0000    0.0000 C   0  0  0  0  0  0  0  0  0  0  0  0
    0.0000    0.0000    0.0000 C   0  0  0  0  0  0  0  0  0  0  0  0
    0.0000    0.0000    0.0000 C   0  0  0  0  0  0  0  0  0  0  0  0
    0.0000    0.0000    0.0000 C   0  0  0  0  0  0  0  0  0  0  0  0
    0.0000    0.0000    0.0000 C   0  0  0  0  0  0  0  0  0  0  0  0
    0.0000    0.0000    0.0000 S   0  0  0  0  0  0  0  0  0  0  0  0
    0.0000    0.0000    0.0000 C   0  0  0  0  0  0  0  0  0  0  0  0
    0.0000    0.0000    0.0000 O   0  0  0  0  0  0  0  0  0  0  0  0
    0.0000    0.0000    0.0000 N   0  0  0  0  0  0  0  0  0  0  0  0
    0.0000    0.0000    0.0000 C   0  0  0  0  0  0  0  0  0  0  0  0
    0.0000    0.0000    0.0000 O   0  0  0  0  0  0  0  0  0  0  0  0
    0.0000    0.0000    0.0000 C   0  0  0  0  0  0  0  0  0  0  0  0
    0.0000    0.0000    0.0000 C   0  0  0  0  0  0  0  0  0  0  0  0
    0.0000    0.0000    0.0000 C   0  0  0  0  0  0  0  0  0  0  0  0
    0.0000    0.0000    0.0000 C   0  0  0  0  0  0  0  0  0  0  0  0
    0.0000    0.0000    0.0000 C   0  0  0  0  0  0  0  0  0  0  0  0
    0.0000    0.0000    0.0000 C   0  0  0  0  0  0  0  0  0  0  0  0
    0.0000    0.0000    0.0000 C   0  0  0  0  0  0  0  0  0  0  0  0
    0.0000    0.0000    0.0000 N   0  0  0  0  0  0  0  0  0  0  0  0
  1  2  1  0
  2  3  1  0
  3  4  1  0
  4  5  1  0
  5  6  1  0
  6  7  2  0
  7  8  1  0
  8  9  2  0
  9 10  1  0
 10 11  1  0
 11 12  1  0
 12 13  1  0
 13 14  2  0
 13 15  1  0
 15 16  1  0
 16 17  2  0
  9 18  1  0
 18 19  2  0
  2 20  1  0
 20 21  2  0
 21 22  1  0
 22 23  2  0
 23 24  1  0
 24 25  2  0
 19  6  1  0
 16 11  1  0
 25 20  1  0
M  END
>  <pIC50>  (445) 
5.39

>  <ChEMBL_ID>  (445) 
CHEMBL121

>  <document_journal>  (445) 
None

>  <bao_endpoint>  (445) 
BAO_0000190

>  <potential_duplicate>  (445) 
False

>  <uo_units>  (445) 
UO_0000065

>  <canonical_smiles>  (445) 
CN(CCOc1ccc(CC2SC(=O)NC2=O)cc1)c3ccccn3

>  <parent_molecule_chembl_id>  (445) 
CHEMBL121

>  <assay_type>  (445) 
B

>  <src_id>  (445) 
15

>  <ligand_efficiency>  (445) 
{u'le': u'0.29', u'bei': u'15.08', u'sei': u'5.57', u'lle': u'2.12'}

>  <standard_flag>  (445) 
True

>  <molecule_chembl_id>  (445) 
CHEMBL121

>  <target_organism>  (445) 
Homo sapiens

>  <standard_units>  (445) 
nM

>  <record_id>  (445) 
1540124

>  <document_chembl_id>  (445) 
CHEMBL1909046

>  <bao_format>  (445) 
BAO_0000221

>  <data_validity_description>  (445) 
None

>  <activity_id>  (445) 
7821955

>  <standard_type>  (445) 
IC50

>  <target_chembl_id>  (445) 
CHEMBL205

>  <data_validity_comment>  (445) 
None

>  <published_value>  (445) 
4.069

>  <document_year>  (445) 
None

>  <target_pref_name>  (445) 
Carbonic anhydrase II

>  <assay_chembl_id>  (445) 
CHEMBL1909123

>  <standard_relation>  (445) 
=

>  <assay_description>  (445) 
DRUGMATRIX: Carbonic Anhydrase II enzyme inhibition (substrate: 4-Nitrophenyl acetate (4-NPA))

>  <published_relation>  (445) 
=

>  <standard_value>  (445) 
4069

>  <qudt_units>  (445) 
http://www.openphacts.org/units/Nanomolar

>  <target_tax_id>  (445) 
9606

>  <bao_label>  (445) 
tissue-based format

>  <published_units>  (445) 
uM

>  <pchembl_value>  (445) 
5.39

>  <published_type>  (445) 
IC50

>  <activity_comment>  (445) 
None

$$$$

     RDKit          

 18 20  0  0  0  0  0  0  0  0999 V2000
    0.0000    0.0000    0.0000 N   0  0  0  0  0  0  0  0  0  0  0  0
    0.0000    0.0000    0.0000 C   0  0  0  0  0  0  0  0  0  0  0  0
    0.0000    0.0000    0.0000 C   0  0  0  0  0  0  0  0  0  0  0  0
    0.0000    0.0000    0.0000 C   0  0  0  0  0  0  0  0  0  0  0  0
    0.0000    0.0000    0.0000 O   0  0  0  0  0  0  0  0  0  0  0  0
    0.0000    0.0000    0.0000 C   0  0  0  0  0  0  0  0  0  0  0  0
    0.0000    0.0000    0.0000 C   0  0  0  0  0  0  0  0  0  0  0  0
    0.0000    0.0000    0.0000 C   0  0  0  0  0  0  0  0  0  0  0  0
    0.0000    0.0000    0.0000 C   0  0  0  0  0  0  0  0  0  0  0  0
    0.0000    0.0000    0.0000 C   0  0  0  0  0  0  0  0  0  0  0  0
    0.0000    0.0000    0.0000 C   0  0  0  0  0  0  0  0  0  0  0  0
    0.0000    0.0000    0.0000 O   0  0  0  0  0  0  0  0  0  0  0  0
    0.0000    0.0000    0.0000 C   0  0  0  0  0  0  0  0  0  0  0  0
    0.0000    0.0000    0.0000 C   0  0  0  0  0  0  0  0  0  0  0  0
    0.0000    0.0000    0.0000 C   0  0  0  0  0  0  0  0  0  0  0  0
    0.0000    0.0000    0.0000 C   0  0  0  0  0  0  0  0  0  0  0  0
    0.0000    0.0000    0.0000 C   0  0  0  0  0  0  0  0  0  0  0  0
    0.0000    0.0000    0.0000 C   0  0  0  0  0  0  0  0  0  0  0  0
  1  2  1  0
  2  3  2  0
  3  4  1  0
  4  5  2  0
  4  6  1  0
  6  7  2  0
  7  8  1  0
  8  9  2  0
  9 10  1  0
 10 11  2  0
 11 12  1  0
  3 13  1  0
 13 14  2  0
 14 15  1  0
 15 16  2  0
 16 17  1  0
 17 18  2  0
 12  2  1  0
 11  6  1  0
 18 13  1  0
M  END
>  <pIC50>  (446) 
5.03

>  <ChEMBL_ID>  (446) 
CHEMBL2019136

>  <document_journal>  (446) 
Bioorg. Med. Chem. Lett.

>  <bao_endpoint>  (446) 
BAO_0000190

>  <potential_duplicate>  (446) 
False

>  <uo_units>  (446) 
UO_0000065

>  <canonical_smiles>  (446) 
NC1=C(C(=O)c2ccccc2O1)c3ccccc3

>  <parent_molecule_chembl_id>  (446) 
CHEMBL2019136

>  <assay_type>  (446) 
B

>  <src_id>  (446) 
1

>  <ligand_efficiency>  (446) 
{u'le': u'0.38', u'bei': u'21.18', u'sei': u'9.61', u'lle': u'2.38'}

>  <standard_flag>  (446) 
True

>  <molecule_chembl_id>  (446) 
CHEMBL2019136

>  <target_organism>  (446) 
Homo sapiens

>  <standard_units>  (446) 
nM

>  <record_id>  (446) 
1637078

>  <document_chembl_id>  (446) 
CHEMBL2016452

>  <bao_format>  (446) 
BAO_0000357

>  <data_validity_description>  (446) 
None

>  <activity_id>  (446) 
10852160

>  <standard_type>  (446) 
IC50

>  <target_chembl_id>  (446) 
CHEMBL205

>  <data_validity_comment>  (446) 
None

>  <published_value>  (446) 
9.43

>  <document_year>  (446) 
2012

>  <target_pref_name>  (446) 
Carbonic anhydrase II

>  <assay_chembl_id>  (446) 
CHEMBL2019838

>  <standard_relation>  (446) 
=

>  <assay_description>  (446) 
Inhibition of cytosolic human carbonic anhydrase 2 preincubated for 15 mins by stopped flow CO2 hydration assay

>  <published_relation>  (446) 
=

>  <standard_value>  (446) 
9430

>  <qudt_units>  (446) 
http://www.openphacts.org/units/Nanomolar

>  <target_tax_id>  (446) 
9606

>  <bao_label>  (446) 
single protein format

>  <published_units>  (446) 
uM

>  <pchembl_value>  (446) 
5.03

>  <published_type>  (446) 
IC50

>  <activity_comment>  (446) 
None

$$$$

     RDKit          

 19 21  0  0  0  0  0  0  0  0999 V2000
    0.0000    0.0000    0.0000 N   0  0  0  0  0  0  0  0  0  0  0  0
    0.0000    0.0000    0.0000 C   0  0  0  0  0  0  0  0  0  0  0  0
    0.0000    0.0000    0.0000 C   0  0  0  0  0  0  0  0  0  0  0  0
    0.0000    0.0000    0.0000 C   0  0  0  0  0  0  0  0  0  0  0  0
    0.0000    0.0000    0.0000 O   0  0  0  0  0  0  0  0  0  0  0  0
    0.0000    0.0000    0.0000 C   0  0  0  0  0  0  0  0  0  0  0  0
    0.0000    0.0000    0.0000 C   0  0  0  0  0  0  0  0  0  0  0  0
    0.0000    0.0000    0.0000 C   0  0  0  0  0  0  0  0  0  0  0  0
    0.0000    0.0000    0.0000 Cl  0  0  0  0  0  0  0  0  0  0  0  0
    0.0000    0.0000    0.0000 C   0  0  0  0  0  0  0  0  0  0  0  0
    0.0000    0.0000    0.0000 C   0  0  0  0  0  0  0  0  0  0  0  0
    0.0000    0.0000    0.0000 C   0  0  0  0  0  0  0  0  0  0  0  0
    0.0000    0.0000    0.0000 O   0  0  0  0  0  0  0  0  0  0  0  0
    0.0000    0.0000    0.0000 C   0  0  0  0  0  0  0  0  0  0  0  0
    0.0000    0.0000    0.0000 C   0  0  0  0  0  0  0  0  0  0  0  0
    0.0000    0.0000    0.0000 C   0  0  0  0  0  0  0  0  0  0  0  0
    0.0000    0.0000    0.0000 C   0  0  0  0  0  0  0  0  0  0  0  0
    0.0000    0.0000    0.0000 C   0  0  0  0  0  0  0  0  0  0  0  0
    0.0000    0.0000    0.0000 C   0  0  0  0  0  0  0  0  0  0  0  0
  1  2  1  0
  2  3  2  0
  3  4  1  0
  4  5  2  0
  4  6  1  0
  6  7  2  0
  7  8  1  0
  8  9  1  0
  8 10  2  0
 10 11  1  0
 11 12  2  0
 12 13  1  0
  3 14  1  0
 14 15  2  0
 15 16  1  0
 16 17  2  0
 17 18  1  0
 18 19  2  0
 13  2  1  0
 12  6  1  0
 19 14  1  0
M  END
>  <pIC50>  (447) 
4.44

>  <ChEMBL_ID>  (447) 
CHEMBL2019137

>  <document_journal>  (447) 
Bioorg. Med. Chem. Lett.

>  <bao_endpoint>  (447) 
BAO_0000190

>  <potential_duplicate>  (447) 
False

>  <uo_units>  (447) 
UO_0000065

>  <canonical_smiles>  (447) 
NC1=C(C(=O)c2cc(Cl)ccc2O1)c3ccccc3

>  <parent_molecule_chembl_id>  (447) 
CHEMBL2019137

>  <assay_type>  (447) 
B

>  <src_id>  (447) 
1

>  <ligand_efficiency>  (447) 
{u'le': u'0.32', u'bei': u'16.35', u'sei': u'8.49', u'lle': u'1.13'}

>  <standard_flag>  (447) 
True

>  <molecule_chembl_id>  (447) 
CHEMBL2019137

>  <target_organism>  (447) 
Homo sapiens

>  <standard_units>  (447) 
nM

>  <record_id>  (447) 
1637083

>  <document_chembl_id>  (447) 
CHEMBL2016452

>  <bao_format>  (447) 
BAO_0000357

>  <data_validity_description>  (447) 
None

>  <activity_id>  (447) 
10852162

>  <standard_type>  (447) 
IC50

>  <target_chembl_id>  (447) 
CHEMBL205

>  <data_validity_comment>  (447) 
None

>  <published_value>  (447) 
36.2

>  <document_year>  (447) 
2012

>  <target_pref_name>  (447) 
Carbonic anhydrase II

>  <assay_chembl_id>  (447) 
CHEMBL2019838

>  <standard_relation>  (447) 
=

>  <assay_description>  (447) 
Inhibition of cytosolic human carbonic anhydrase 2 preincubated for 15 mins by stopped flow CO2 hydration assay

>  <published_relation>  (447) 
=

>  <standard_value>  (447) 
36200

>  <qudt_units>  (447) 
http://www.openphacts.org/units/Nanomolar

>  <target_tax_id>  (447) 
9606

>  <bao_label>  (447) 
single protein format

>  <published_units>  (447) 
uM

>  <pchembl_value>  (447) 
4.44

>  <published_type>  (447) 
IC50

>  <activity_comment>  (447) 
None

$$$$

     RDKit          

 19 21  0  0  0  0  0  0  0  0999 V2000
    0.0000    0.0000    0.0000 N   0  0  0  0  0  0  0  0  0  0  0  0
    0.0000    0.0000    0.0000 C   0  0  0  0  0  0  0  0  0  0  0  0
    0.0000    0.0000    0.0000 C   0  0  0  0  0  0  0  0  0  0  0  0
    0.0000    0.0000    0.0000 C   0  0  0  0  0  0  0  0  0  0  0  0
    0.0000    0.0000    0.0000 O   0  0  0  0  0  0  0  0  0  0  0  0
    0.0000    0.0000    0.0000 C   0  0  0  0  0  0  0  0  0  0  0  0
    0.0000    0.0000    0.0000 C   0  0  0  0  0  0  0  0  0  0  0  0
    0.0000    0.0000    0.0000 C   0  0  0  0  0  0  0  0  0  0  0  0
    0.0000    0.0000    0.0000 C   0  0  0  0  0  0  0  0  0  0  0  0
    0.0000    0.0000    0.0000 Cl  0  0  0  0  0  0  0  0  0  0  0  0
    0.0000    0.0000    0.0000 C   0  0  0  0  0  0  0  0  0  0  0  0
    0.0000    0.0000    0.0000 C   0  0  0  0  0  0  0  0  0  0  0  0
    0.0000    0.0000    0.0000 O   0  0  0  0  0  0  0  0  0  0  0  0
    0.0000    0.0000    0.0000 C   0  0  0  0  0  0  0  0  0  0  0  0
    0.0000    0.0000    0.0000 C   0  0  0  0  0  0  0  0  0  0  0  0
    0.0000    0.0000    0.0000 C   0  0  0  0  0  0  0  0  0  0  0  0
    0.0000    0.0000    0.0000 C   0  0  0  0  0  0  0  0  0  0  0  0
    0.0000    0.0000    0.0000 C   0  0  0  0  0  0  0  0  0  0  0  0
    0.0000    0.0000    0.0000 C   0  0  0  0  0  0  0  0  0  0  0  0
  1  2  1  0
  2  3  2  0
  3  4  1  0
  4  5  2  0
  4  6  1  0
  6  7  2  0
  7  8  1  0
  8  9  2  0
  9 10  1  0
  9 11  1  0
 11 12  2  0
 12 13  1  0
  3 14  1  0
 14 15  2  0
 15 16  1  0
 16 17  2  0
 17 18  1  0
 18 19  2  0
 13  2  1  0
 12  6  1  0
 19 14  1  0
M  END
>  <pIC50>  (448) 
5.17

>  <ChEMBL_ID>  (448) 
CHEMBL2019138

>  <document_journal>  (448) 
Bioorg. Med. Chem. Lett.

>  <bao_endpoint>  (448) 
BAO_0000190

>  <potential_duplicate>  (448) 
False

>  <uo_units>  (448) 
UO_0000065

>  <canonical_smiles>  (448) 
NC1=C(C(=O)c2ccc(Cl)cc2O1)c3ccccc3

>  <parent_molecule_chembl_id>  (448) 
CHEMBL2019138

>  <assay_type>  (448) 
B

>  <src_id>  (448) 
1

>  <ligand_efficiency>  (448) 
{u'le': u'0.37', u'bei': u'19.02', u'sei': u'9.88', u'lle': u'1.86'}

>  <standard_flag>  (448) 
True

>  <molecule_chembl_id>  (448) 
CHEMBL2019138

>  <target_organism>  (448) 
Homo sapiens

>  <standard_units>  (448) 
nM

>  <record_id>  (448) 
1637084

>  <document_chembl_id>  (448) 
CHEMBL2016452

>  <bao_format>  (448) 
BAO_0000357

>  <data_validity_description>  (448) 
None

>  <activity_id>  (448) 
10852164

>  <standard_type>  (448) 
IC50

>  <target_chembl_id>  (448) 
CHEMBL205

>  <data_validity_comment>  (448) 
None

>  <published_value>  (448) 
6.79

>  <document_year>  (448) 
2012

>  <target_pref_name>  (448) 
Carbonic anhydrase II

>  <assay_chembl_id>  (448) 
CHEMBL2019838

>  <standard_relation>  (448) 
=

>  <assay_description>  (448) 
Inhibition of cytosolic human carbonic anhydrase 2 preincubated for 15 mins by stopped flow CO2 hydration assay

>  <published_relation>  (448) 
=

>  <standard_value>  (448) 
6790

>  <qudt_units>  (448) 
http://www.openphacts.org/units/Nanomolar

>  <target_tax_id>  (448) 
9606

>  <bao_label>  (448) 
single protein format

>  <published_units>  (448) 
uM

>  <pchembl_value>  (448) 
5.17

>  <published_type>  (448) 
IC50

>  <activity_comment>  (448) 
None

$$$$

     RDKit          

 19 21  0  0  0  0  0  0  0  0999 V2000
    0.0000    0.0000    0.0000 N   0  0  0  0  0  0  0  0  0  0  0  0
    0.0000    0.0000    0.0000 C   0  0  0  0  0  0  0  0  0  0  0  0
    0.0000    0.0000    0.0000 C   0  0  0  0  0  0  0  0  0  0  0  0
    0.0000    0.0000    0.0000 C   0  0  0  0  0  0  0  0  0  0  0  0
    0.0000    0.0000    0.0000 O   0  0  0  0  0  0  0  0  0  0  0  0
    0.0000    0.0000    0.0000 C   0  0  0  0  0  0  0  0  0  0  0  0
    0.0000    0.0000    0.0000 C   0  0  0  0  0  0  0  0  0  0  0  0
    0.0000    0.0000    0.0000 C   0  0  0  0  0  0  0  0  0  0  0  0
    0.0000    0.0000    0.0000 C   0  0  0  0  0  0  0  0  0  0  0  0
    0.0000    0.0000    0.0000 C   0  0  0  0  0  0  0  0  0  0  0  0
    0.0000    0.0000    0.0000 C   0  0  0  0  0  0  0  0  0  0  0  0
    0.0000    0.0000    0.0000 O   0  0  0  0  0  0  0  0  0  0  0  0
    0.0000    0.0000    0.0000 C   0  0  0  0  0  0  0  0  0  0  0  0
    0.0000    0.0000    0.0000 C   0  0  0  0  0  0  0  0  0  0  0  0
    0.0000    0.0000    0.0000 C   0  0  0  0  0  0  0  0  0  0  0  0
    0.0000    0.0000    0.0000 C   0  0  0  0  0  0  0  0  0  0  0  0
    0.0000    0.0000    0.0000 Cl  0  0  0  0  0  0  0  0  0  0  0  0
    0.0000    0.0000    0.0000 C   0  0  0  0  0  0  0  0  0  0  0  0
    0.0000    0.0000    0.0000 C   0  0  0  0  0  0  0  0  0  0  0  0
  1  2  1  0
  2  3  2  0
  3  4  1  0
  4  5  2  0
  4  6  1  0
  6  7  2  0
  7  8  1  0
  8  9  2  0
  9 10  1  0
 10 11  2  0
 11 12  1  0
  3 13  1  0
 13 14  2  0
 14 15  1  0
 15 16  2  0
 16 17  1  0
 16 18  1  0
 18 19  2  0
 12  2  1  0
 11  6  1  0
 19 13  1  0
M  END
>  <pIC50>  (449) 
5.06

>  <ChEMBL_ID>  (449) 
CHEMBL2019139

>  <document_journal>  (449) 
Bioorg. Med. Chem. Lett.

>  <bao_endpoint>  (449) 
BAO_0000190

>  <potential_duplicate>  (449) 
False

>  <uo_units>  (449) 
UO_0000065

>  <canonical_smiles>  (449) 
NC1=C(C(=O)c2ccccc2O1)c3ccc(Cl)cc3

>  <parent_molecule_chembl_id>  (449) 
CHEMBL2019139

>  <assay_type>  (449) 
B

>  <src_id>  (449) 
1

>  <ligand_efficiency>  (449) 
{u'le': u'0.36', u'bei': u'18.63', u'sei': u'9.68', u'lle': u'1.75'}

>  <standard_flag>  (449) 
True

>  <molecule_chembl_id>  (449) 
CHEMBL2019139

>  <target_organism>  (449) 
Homo sapiens

>  <standard_units>  (449) 
nM

>  <record_id>  (449) 
1637085

>  <document_chembl_id>  (449) 
CHEMBL2016452

>  <bao_format>  (449) 
BAO_0000357

>  <data_validity_description>  (449) 
None

>  <activity_id>  (449) 
10852755

>  <standard_type>  (449) 
IC50

>  <target_chembl_id>  (449) 
CHEMBL205

>  <data_validity_comment>  (449) 
None

>  <published_value>  (449) 
8.66

>  <document_year>  (449) 
2012

>  <target_pref_name>  (449) 
Carbonic anhydrase II

>  <assay_chembl_id>  (449) 
CHEMBL2019838

>  <standard_relation>  (449) 
=

>  <assay_description>  (449) 
Inhibition of cytosolic human carbonic anhydrase 2 preincubated for 15 mins by stopped flow CO2 hydration assay

>  <published_relation>  (449) 
=

>  <standard_value>  (449) 
8660

>  <qudt_units>  (449) 
http://www.openphacts.org/units/Nanomolar

>  <target_tax_id>  (449) 
9606

>  <bao_label>  (449) 
single protein format

>  <published_units>  (449) 
uM

>  <pchembl_value>  (449) 
5.06

>  <published_type>  (449) 
IC50

>  <activity_comment>  (449) 
None

$$$$

     RDKit          

 20 22  0  0  0  0  0  0  0  0999 V2000
    0.0000    0.0000    0.0000 N   0  0  0  0  0  0  0  0  0  0  0  0
    0.0000    0.0000    0.0000 C   0  0  0  0  0  0  0  0  0  0  0  0
    0.0000    0.0000    0.0000 C   0  0  0  0  0  0  0  0  0  0  0  0
    0.0000    0.0000    0.0000 C   0  0  0  0  0  0  0  0  0  0  0  0
    0.0000    0.0000    0.0000 O   0  0  0  0  0  0  0  0  0  0  0  0
    0.0000    0.0000    0.0000 C   0  0  0  0  0  0  0  0  0  0  0  0
    0.0000    0.0000    0.0000 C   0  0  0  0  0  0  0  0  0  0  0  0
    0.0000    0.0000    0.0000 C   0  0  0  0  0  0  0  0  0  0  0  0
    0.0000    0.0000    0.0000 Cl  0  0  0  0  0  0  0  0  0  0  0  0
    0.0000    0.0000    0.0000 C   0  0  0  0  0  0  0  0  0  0  0  0
    0.0000    0.0000    0.0000 C   0  0  0  0  0  0  0  0  0  0  0  0
    0.0000    0.0000    0.0000 C   0  0  0  0  0  0  0  0  0  0  0  0
    0.0000    0.0000    0.0000 O   0  0  0  0  0  0  0  0  0  0  0  0
    0.0000    0.0000    0.0000 C   0  0  0  0  0  0  0  0  0  0  0  0
    0.0000    0.0000    0.0000 C   0  0  0  0  0  0  0  0  0  0  0  0
    0.0000    0.0000    0.0000 C   0  0  0  0  0  0  0  0  0  0  0  0
    0.0000    0.0000    0.0000 C   0  0  0  0  0  0  0  0  0  0  0  0
    0.0000    0.0000    0.0000 Cl  0  0  0  0  0  0  0  0  0  0  0  0
    0.0000    0.0000    0.0000 C   0  0  0  0  0  0  0  0  0  0  0  0
    0.0000    0.0000    0.0000 C   0  0  0  0  0  0  0  0  0  0  0  0
  1  2  1  0
  2  3  2  0
  3  4  1  0
  4  5  2  0
  4  6  1  0
  6  7  2  0
  7  8  1  0
  8  9  1  0
  8 10  2  0
 10 11  1  0
 11 12  2  0
 12 13  1  0
  3 14  1  0
 14 15  2  0
 15 16  1  0
 16 17  2  0
 17 18  1  0
 17 19  1  0
 19 20  2  0
 13  2  1  0
 12  6  1  0
 20 14  1  0
M  END
>  <pIC50>  (450) 
5.44

>  <ChEMBL_ID>  (450) 
CHEMBL2019140

>  <document_journal>  (450) 
Bioorg. Med. Chem. Lett.

>  <bao_endpoint>  (450) 
BAO_0000190

>  <potential_duplicate>  (450) 
False

>  <uo_units>  (450) 
UO_0000065

>  <canonical_smiles>  (450) 
NC1=C(C(=O)c2cc(Cl)ccc2O1)c3ccc(Cl)cc3

>  <parent_molecule_chembl_id>  (450) 
CHEMBL2019140

>  <assay_type>  (450) 
B

>  <src_id>  (450) 
1

>  <ligand_efficiency>  (450) 
{u'le': u'0.37', u'bei': u'17.77', u'sei': u'10.4', u'lle': u'1.46'}

>  <standard_flag>  (450) 
True

>  <molecule_chembl_id>  (450) 
CHEMBL2019140

>  <target_organism>  (450) 
Homo sapiens

>  <standard_units>  (450) 
nM

>  <record_id>  (450) 
1637086

>  <document_chembl_id>  (450) 
CHEMBL2016452

>  <bao_format>  (450) 
BAO_0000357

>  <data_validity_description>  (450) 
None

>  <activity_id>  (450) 
10852757

>  <standard_type>  (450) 
IC50

>  <target_chembl_id>  (450) 
CHEMBL205

>  <data_validity_comment>  (450) 
None

>  <published_value>  (450) 
3.62

>  <document_year>  (450) 
2012

>  <target_pref_name>  (450) 
Carbonic anhydrase II

>  <assay_chembl_id>  (450) 
CHEMBL2019838

>  <standard_relation>  (450) 
=

>  <assay_description>  (450) 
Inhibition of cytosolic human carbonic anhydrase 2 preincubated for 15 mins by stopped flow CO2 hydration assay

>  <published_relation>  (450) 
=

>  <standard_value>  (450) 
3620

>  <qudt_units>  (450) 
http://www.openphacts.org/units/Nanomolar

>  <target_tax_id>  (450) 
9606

>  <bao_label>  (450) 
single protein format

>  <published_units>  (450) 
uM

>  <pchembl_value>  (450) 
5.44

>  <published_type>  (450) 
IC50

>  <activity_comment>  (450) 
None

$$$$

     RDKit          

 20 22  0  0  0  0  0  0  0  0999 V2000
    0.0000    0.0000    0.0000 N   0  0  0  0  0  0  0  0  0  0  0  0
    0.0000    0.0000    0.0000 C   0  0  0  0  0  0  0  0  0  0  0  0
    0.0000    0.0000    0.0000 C   0  0  0  0  0  0  0  0  0  0  0  0
    0.0000    0.0000    0.0000 C   0  0  0  0  0  0  0  0  0  0  0  0
    0.0000    0.0000    0.0000 O   0  0  0  0  0  0  0  0  0  0  0  0
    0.0000    0.0000    0.0000 C   0  0  0  0  0  0  0  0  0  0  0  0
    0.0000    0.0000    0.0000 C   0  0  0  0  0  0  0  0  0  0  0  0
    0.0000    0.0000    0.0000 C   0  0  0  0  0  0  0  0  0  0  0  0
    0.0000    0.0000    0.0000 C   0  0  0  0  0  0  0  0  0  0  0  0
    0.0000    0.0000    0.0000 Cl  0  0  0  0  0  0  0  0  0  0  0  0
    0.0000    0.0000    0.0000 C   0  0  0  0  0  0  0  0  0  0  0  0
    0.0000    0.0000    0.0000 C   0  0  0  0  0  0  0  0  0  0  0  0
    0.0000    0.0000    0.0000 O   0  0  0  0  0  0  0  0  0  0  0  0
    0.0000    0.0000    0.0000 C   0  0  0  0  0  0  0  0  0  0  0  0
    0.0000    0.0000    0.0000 C   0  0  0  0  0  0  0  0  0  0  0  0
    0.0000    0.0000    0.0000 C   0  0  0  0  0  0  0  0  0  0  0  0
    0.0000    0.0000    0.0000 C   0  0  0  0  0  0  0  0  0  0  0  0
    0.0000    0.0000    0.0000 Cl  0  0  0  0  0  0  0  0  0  0  0  0
    0.0000    0.0000    0.0000 C   0  0  0  0  0  0  0  0  0  0  0  0
    0.0000    0.0000    0.0000 C   0  0  0  0  0  0  0  0  0  0  0  0
  1  2  1  0
  2  3  2  0
  3  4  1  0
  4  5  2  0
  4  6  1  0
  6  7  2  0
  7  8  1  0
  8  9  2  0
  9 10  1  0
  9 11  1  0
 11 12  2  0
 12 13  1  0
  3 14  1  0
 14 15  2  0
 15 16  1  0
 16 17  2  0
 17 18  1  0
 17 19  1  0
 19 20  2  0
 13  2  1  0
 12  6  1  0
 20 14  1  0
M  END
>  <pIC50>  (451) 
5.08

>  <ChEMBL_ID>  (451) 
CHEMBL2019141

>  <document_journal>  (451) 
Bioorg. Med. Chem. Lett.

>  <bao_endpoint>  (451) 
BAO_0000190

>  <potential_duplicate>  (451) 
False

>  <uo_units>  (451) 
UO_0000065

>  <canonical_smiles>  (451) 
NC1=C(C(=O)c2ccc(Cl)cc2O1)c3ccc(Cl)cc3

>  <parent_molecule_chembl_id>  (451) 
CHEMBL2019141

>  <assay_type>  (451) 
B

>  <src_id>  (451) 
1

>  <ligand_efficiency>  (451) 
{u'le': u'0.35', u'bei': u'16.61', u'sei': u'9.72', u'lle': u'1.1'}

>  <standard_flag>  (451) 
True

>  <molecule_chembl_id>  (451) 
CHEMBL2019141

>  <target_organism>  (451) 
Homo sapiens

>  <standard_units>  (451) 
nM

>  <record_id>  (451) 
1637087

>  <document_chembl_id>  (451) 
CHEMBL2016452

>  <bao_format>  (451) 
BAO_0000357

>  <data_validity_description>  (451) 
None

>  <activity_id>  (451) 
10852772

>  <standard_type>  (451) 
IC50

>  <target_chembl_id>  (451) 
CHEMBL205

>  <data_validity_comment>  (451) 
None

>  <published_value>  (451) 
8.25

>  <document_year>  (451) 
2012

>  <target_pref_name>  (451) 
Carbonic anhydrase II

>  <assay_chembl_id>  (451) 
CHEMBL2019838

>  <standard_relation>  (451) 
=

>  <assay_description>  (451) 
Inhibition of cytosolic human carbonic anhydrase 2 preincubated for 15 mins by stopped flow CO2 hydration assay

>  <published_relation>  (451) 
=

>  <standard_value>  (451) 
8250

>  <qudt_units>  (451) 
http://www.openphacts.org/units/Nanomolar

>  <target_tax_id>  (451) 
9606

>  <bao_label>  (451) 
single protein format

>  <published_units>  (451) 
uM

>  <pchembl_value>  (451) 
5.08

>  <published_type>  (451) 
IC50

>  <activity_comment>  (451) 
None

$$$$

     RDKit          

 20 22  0  0  0  0  0  0  0  0999 V2000
    0.0000    0.0000    0.0000 C   0  0  0  0  0  0  0  0  0  0  0  0
    0.0000    0.0000    0.0000 O   0  0  0  0  0  0  0  0  0  0  0  0
    0.0000    0.0000    0.0000 C   0  0  0  0  0  0  0  0  0  0  0  0
    0.0000    0.0000    0.0000 C   0  0  0  0  0  0  0  0  0  0  0  0
    0.0000    0.0000    0.0000 C   0  0  0  0  0  0  0  0  0  0  0  0
    0.0000    0.0000    0.0000 C   0  0  0  0  0  0  0  0  0  0  0  0
    0.0000    0.0000    0.0000 C   0  0  0  0  0  0  0  0  0  0  0  0
    0.0000    0.0000    0.0000 C   0  0  0  0  0  0  0  0  0  0  0  0
    0.0000    0.0000    0.0000 C   0  0  0  0  0  0  0  0  0  0  0  0
    0.0000    0.0000    0.0000 C   0  0  0  0  0  0  0  0  0  0  0  0
    0.0000    0.0000    0.0000 N   0  0  0  0  0  0  0  0  0  0  0  0
    0.0000    0.0000    0.0000 O   0  0  0  0  0  0  0  0  0  0  0  0
    0.0000    0.0000    0.0000 C   0  0  0  0  0  0  0  0  0  0  0  0
    0.0000    0.0000    0.0000 C   0  0  0  0  0  0  0  0  0  0  0  0
    0.0000    0.0000    0.0000 C   0  0  0  0  0  0  0  0  0  0  0  0
    0.0000    0.0000    0.0000 C   0  0  0  0  0  0  0  0  0  0  0  0
    0.0000    0.0000    0.0000 C   0  0  0  0  0  0  0  0  0  0  0  0
    0.0000    0.0000    0.0000 C   0  0  0  0  0  0  0  0  0  0  0  0
    0.0000    0.0000    0.0000 C   0  0  0  0  0  0  0  0  0  0  0  0
    0.0000    0.0000    0.0000 O   0  0  0  0  0  0  0  0  0  0  0  0
  1  2  1  0
  2  3  1  0
  3  4  2  0
  4  5  1  0
  5  6  2  0
  6  7  1  0
  7  8  2  0
  6  9  1  0
  9 10  2  0
 10 11  1  0
 10 12  1  0
 12 13  1  0
 13 14  2  0
 14 15  1  0
 15 16  2  0
 16 17  1  0
 17 18  2  0
 18 19  1  0
 19 20  2  0
  8  3  1  0
 19  9  1  0
 18 13  1  0
M  END
>  <pIC50>  (452) 
5.19

>  <ChEMBL_ID>  (452) 
CHEMBL2019142

>  <document_journal>  (452) 
Bioorg. Med. Chem. Lett.

>  <bao_endpoint>  (452) 
BAO_0000190

>  <potential_duplicate>  (452) 
False

>  <uo_units>  (452) 
UO_0000065

>  <canonical_smiles>  (452) 
COc1ccc(cc1)C2=C(N)Oc3ccccc3C2=O

>  <parent_molecule_chembl_id>  (452) 
CHEMBL2019142

>  <assay_type>  (452) 
B

>  <src_id>  (452) 
1

>  <ligand_efficiency>  (452) 
{u'le': u'0.35', u'bei': u'19.4', u'sei': u'8.43', u'lle': u'2.56'}

>  <standard_flag>  (452) 
True

>  <molecule_chembl_id>  (452) 
CHEMBL2019142

>  <target_organism>  (452) 
Homo sapiens

>  <standard_units>  (452) 
nM

>  <record_id>  (452) 
1637088

>  <document_chembl_id>  (452) 
CHEMBL2016452

>  <bao_format>  (452) 
BAO_0000357

>  <data_validity_description>  (452) 
None

>  <activity_id>  (452) 
10852774

>  <standard_type>  (452) 
IC50

>  <target_chembl_id>  (452) 
CHEMBL205

>  <data_validity_comment>  (452) 
None

>  <published_value>  (452) 
6.51

>  <document_year>  (452) 
2012

>  <target_pref_name>  (452) 
Carbonic anhydrase II

>  <assay_chembl_id>  (452) 
CHEMBL2019838

>  <standard_relation>  (452) 
=

>  <assay_description>  (452) 
Inhibition of cytosolic human carbonic anhydrase 2 preincubated for 15 mins by stopped flow CO2 hydration assay

>  <published_relation>  (452) 
=

>  <standard_value>  (452) 
6510

>  <qudt_units>  (452) 
http://www.openphacts.org/units/Nanomolar

>  <target_tax_id>  (452) 
9606

>  <bao_label>  (452) 
single protein format

>  <published_units>  (452) 
uM

>  <pchembl_value>  (452) 
5.19

>  <published_type>  (452) 
IC50

>  <activity_comment>  (452) 
None

$$$$

     RDKit          

 21 23  0  0  0  0  0  0  0  0999 V2000
    0.0000    0.0000    0.0000 C   0  0  0  0  0  0  0  0  0  0  0  0
    0.0000    0.0000    0.0000 O   0  0  0  0  0  0  0  0  0  0  0  0
    0.0000    0.0000    0.0000 C   0  0  0  0  0  0  0  0  0  0  0  0
    0.0000    0.0000    0.0000 C   0  0  0  0  0  0  0  0  0  0  0  0
    0.0000    0.0000    0.0000 C   0  0  0  0  0  0  0  0  0  0  0  0
    0.0000    0.0000    0.0000 C   0  0  0  0  0  0  0  0  0  0  0  0
    0.0000    0.0000    0.0000 C   0  0  0  0  0  0  0  0  0  0  0  0
    0.0000    0.0000    0.0000 C   0  0  0  0  0  0  0  0  0  0  0  0
    0.0000    0.0000    0.0000 C   0  0  0  0  0  0  0  0  0  0  0  0
    0.0000    0.0000    0.0000 C   0  0  0  0  0  0  0  0  0  0  0  0
    0.0000    0.0000    0.0000 N   0  0  0  0  0  0  0  0  0  0  0  0
    0.0000    0.0000    0.0000 O   0  0  0  0  0  0  0  0  0  0  0  0
    0.0000    0.0000    0.0000 C   0  0  0  0  0  0  0  0  0  0  0  0
    0.0000    0.0000    0.0000 C   0  0  0  0  0  0  0  0  0  0  0  0
    0.0000    0.0000    0.0000 C   0  0  0  0  0  0  0  0  0  0  0  0
    0.0000    0.0000    0.0000 C   0  0  0  0  0  0  0  0  0  0  0  0
    0.0000    0.0000    0.0000 Cl  0  0  0  0  0  0  0  0  0  0  0  0
    0.0000    0.0000    0.0000 C   0  0  0  0  0  0  0  0  0  0  0  0
    0.0000    0.0000    0.0000 C   0  0  0  0  0  0  0  0  0  0  0  0
    0.0000    0.0000    0.0000 C   0  0  0  0  0  0  0  0  0  0  0  0
    0.0000    0.0000    0.0000 O   0  0  0  0  0  0  0  0  0  0  0  0
  1  2  1  0
  2  3  1  0
  3  4  2  0
  4  5  1  0
  5  6  2  0
  6  7  1  0
  7  8  2  0
  6  9  1  0
  9 10  2  0
 10 11  1  0
 10 12  1  0
 12 13  1  0
 13 14  2  0
 14 15  1  0
 15 16  2  0
 16 17  1  0
 16 18  1  0
 18 19  2  0
 19 20  1  0
 20 21  2  0
  8  3  1  0
 20  9  1  0
 19 13  1  0
M  END
>  <pIC50>  (453) 
5.44

>  <ChEMBL_ID>  (453) 
CHEMBL2019143

>  <document_journal>  (453) 
Bioorg. Med. Chem. Lett.

>  <bao_endpoint>  (453) 
BAO_0000190

>  <potential_duplicate>  (453) 
False

>  <uo_units>  (453) 
UO_0000065

>  <canonical_smiles>  (453) 
COc1ccc(cc1)C2=C(N)Oc3ccc(Cl)cc3C2=O

>  <parent_molecule_chembl_id>  (453) 
CHEMBL2019143

>  <assay_type>  (453) 
B

>  <src_id>  (453) 
1

>  <ligand_efficiency>  (453) 
{u'le': u'0.35', u'bei': u'18.02', u'sei': u'8.83', u'lle': u'2.14'}

>  <standard_flag>  (453) 
True

>  <molecule_chembl_id>  (453) 
CHEMBL2019143

>  <target_organism>  (453) 
Homo sapiens

>  <standard_units>  (453) 
nM

>  <record_id>  (453) 
1637089

>  <document_chembl_id>  (453) 
CHEMBL2016452

>  <bao_format>  (453) 
BAO_0000357

>  <data_validity_description>  (453) 
None

>  <activity_id>  (453) 
10852776

>  <standard_type>  (453) 
IC50

>  <target_chembl_id>  (453) 
CHEMBL205

>  <data_validity_comment>  (453) 
None

>  <published_value>  (453) 
3.66

>  <document_year>  (453) 
2012

>  <target_pref_name>  (453) 
Carbonic anhydrase II

>  <assay_chembl_id>  (453) 
CHEMBL2019838

>  <standard_relation>  (453) 
=

>  <assay_description>  (453) 
Inhibition of cytosolic human carbonic anhydrase 2 preincubated for 15 mins by stopped flow CO2 hydration assay

>  <published_relation>  (453) 
=

>  <standard_value>  (453) 
3660

>  <qudt_units>  (453) 
http://www.openphacts.org/units/Nanomolar

>  <target_tax_id>  (453) 
9606

>  <bao_label>  (453) 
single protein format

>  <published_units>  (453) 
uM

>  <pchembl_value>  (453) 
5.44

>  <published_type>  (453) 
IC50

>  <activity_comment>  (453) 
None

$$$$

     RDKit          

 21 23  0  0  0  0  0  0  0  0999 V2000
    0.0000    0.0000    0.0000 C   0  0  0  0  0  0  0  0  0  0  0  0
    0.0000    0.0000    0.0000 O   0  0  0  0  0  0  0  0  0  0  0  0
    0.0000    0.0000    0.0000 C   0  0  0  0  0  0  0  0  0  0  0  0
    0.0000    0.0000    0.0000 C   0  0  0  0  0  0  0  0  0  0  0  0
    0.0000    0.0000    0.0000 C   0  0  0  0  0  0  0  0  0  0  0  0
    0.0000    0.0000    0.0000 C   0  0  0  0  0  0  0  0  0  0  0  0
    0.0000    0.0000    0.0000 C   0  0  0  0  0  0  0  0  0  0  0  0
    0.0000    0.0000    0.0000 C   0  0  0  0  0  0  0  0  0  0  0  0
    0.0000    0.0000    0.0000 C   0  0  0  0  0  0  0  0  0  0  0  0
    0.0000    0.0000    0.0000 C   0  0  0  0  0  0  0  0  0  0  0  0
    0.0000    0.0000    0.0000 N   0  0  0  0  0  0  0  0  0  0  0  0
    0.0000    0.0000    0.0000 O   0  0  0  0  0  0  0  0  0  0  0  0
    0.0000    0.0000    0.0000 C   0  0  0  0  0  0  0  0  0  0  0  0
    0.0000    0.0000    0.0000 C   0  0  0  0  0  0  0  0  0  0  0  0
    0.0000    0.0000    0.0000 C   0  0  0  0  0  0  0  0  0  0  0  0
    0.0000    0.0000    0.0000 Cl  0  0  0  0  0  0  0  0  0  0  0  0
    0.0000    0.0000    0.0000 C   0  0  0  0  0  0  0  0  0  0  0  0
    0.0000    0.0000    0.0000 C   0  0  0  0  0  0  0  0  0  0  0  0
    0.0000    0.0000    0.0000 C   0  0  0  0  0  0  0  0  0  0  0  0
    0.0000    0.0000    0.0000 C   0  0  0  0  0  0  0  0  0  0  0  0
    0.0000    0.0000    0.0000 O   0  0  0  0  0  0  0  0  0  0  0  0
  1  2  1  0
  2  3  1  0
  3  4  2  0
  4  5  1  0
  5  6  2  0
  6  7  1  0
  7  8  2  0
  6  9  1  0
  9 10  2  0
 10 11  1  0
 10 12  1  0
 12 13  1  0
 13 14  2  0
 14 15  1  0
 15 16  1  0
 15 17  2  0
 17 18  1  0
 18 19  2  0
 19 20  1  0
 20 21  2  0
  8  3  1  0
 20  9  1  0
 19 13  1  0
M  END
>  <pIC50>  (454) 
5.09

>  <ChEMBL_ID>  (454) 
CHEMBL2019144

>  <document_journal>  (454) 
Bioorg. Med. Chem. Lett.

>  <bao_endpoint>  (454) 
BAO_0000190

>  <potential_duplicate>  (454) 
False

>  <uo_units>  (454) 
UO_0000065

>  <canonical_smiles>  (454) 
COc1ccc(cc1)C2=C(N)Oc3cc(Cl)ccc3C2=O

>  <parent_molecule_chembl_id>  (454) 
CHEMBL2019144

>  <assay_type>  (454) 
B

>  <src_id>  (454) 
1

>  <ligand_efficiency>  (454) 
{u'le': u'0.33', u'bei': u'16.88', u'sei': u'8.27', u'lle': u'1.79'}

>  <standard_flag>  (454) 
True

>  <molecule_chembl_id>  (454) 
CHEMBL2019144

>  <target_organism>  (454) 
Homo sapiens

>  <standard_units>  (454) 
nM

>  <record_id>  (454) 
1637090

>  <document_chembl_id>  (454) 
CHEMBL2016452

>  <bao_format>  (454) 
BAO_0000357

>  <data_validity_description>  (454) 
None

>  <activity_id>  (454) 
10852791

>  <standard_type>  (454) 
IC50

>  <target_chembl_id>  (454) 
CHEMBL205

>  <data_validity_comment>  (454) 
None

>  <published_value>  (454) 
8.07

>  <document_year>  (454) 
2012

>  <target_pref_name>  (454) 
Carbonic anhydrase II

>  <assay_chembl_id>  (454) 
CHEMBL2019838

>  <standard_relation>  (454) 
=

>  <assay_description>  (454) 
Inhibition of cytosolic human carbonic anhydrase 2 preincubated for 15 mins by stopped flow CO2 hydration assay

>  <published_relation>  (454) 
=

>  <standard_value>  (454) 
8070

>  <qudt_units>  (454) 
http://www.openphacts.org/units/Nanomolar

>  <target_tax_id>  (454) 
9606

>  <bao_label>  (454) 
single protein format

>  <published_units>  (454) 
uM

>  <pchembl_value>  (454) 
5.09

>  <published_type>  (454) 
IC50

>  <activity_comment>  (454) 
None

$$$$

     RDKit          

 22 24  0  0  0  0  0  0  0  0999 V2000
    0.0000    0.0000    0.0000 C   0  0  0  0  0  0  0  0  0  0  0  0
    0.0000    0.0000    0.0000 O   0  0  0  0  0  0  0  0  0  0  0  0
    0.0000    0.0000    0.0000 C   0  0  0  0  0  0  0  0  0  0  0  0
    0.0000    0.0000    0.0000 C   0  0  0  0  0  0  0  0  0  0  0  0
    0.0000    0.0000    0.0000 C   0  0  0  0  0  0  0  0  0  0  0  0
    0.0000    0.0000    0.0000 C   0  0  0  0  0  0  0  0  0  0  0  0
    0.0000    0.0000    0.0000 C   0  0  0  0  0  0  0  0  0  0  0  0
    0.0000    0.0000    0.0000 C   0  0  0  0  0  0  0  0  0  0  0  0
    0.0000    0.0000    0.0000 O   0  0  0  0  0  0  0  0  0  0  0  0
    0.0000    0.0000    0.0000 C   0  0  0  0  0  0  0  0  0  0  0  0
    0.0000    0.0000    0.0000 C   0  0  0  0  0  0  0  0  0  0  0  0
    0.0000    0.0000    0.0000 C   0  0  0  0  0  0  0  0  0  0  0  0
    0.0000    0.0000    0.0000 N   0  0  0  0  0  0  0  0  0  0  0  0
    0.0000    0.0000    0.0000 O   0  0  0  0  0  0  0  0  0  0  0  0
    0.0000    0.0000    0.0000 C   0  0  0  0  0  0  0  0  0  0  0  0
    0.0000    0.0000    0.0000 C   0  0  0  0  0  0  0  0  0  0  0  0
    0.0000    0.0000    0.0000 C   0  0  0  0  0  0  0  0  0  0  0  0
    0.0000    0.0000    0.0000 C   0  0  0  0  0  0  0  0  0  0  0  0
    0.0000    0.0000    0.0000 C   0  0  0  0  0  0  0  0  0  0  0  0
    0.0000    0.0000    0.0000 C   0  0  0  0  0  0  0  0  0  0  0  0
    0.0000    0.0000    0.0000 C   0  0  0  0  0  0  0  0  0  0  0  0
    0.0000    0.0000    0.0000 O   0  0  0  0  0  0  0  0  0  0  0  0
  1  2  1  0
  2  3  1  0
  3  4  2  0
  4  5  1  0
  5  6  2  0
  6  7  1  0
  7  8  2  0
  8  9  1  0
  9 10  1  0
  6 11  1  0
 11 12  2  0
 12 13  1  0
 12 14  1  0
 14 15  1  0
 15 16  2  0
 16 17  1  0
 17 18  2  0
 18 19  1  0
 19 20  2  0
 20 21  1  0
 21 22  2  0
  8  3  1  0
 21 11  1  0
 20 15  1  0
M  END
>  <pIC50>  (455) 
5.08

>  <ChEMBL_ID>  (455) 
CHEMBL2019145

>  <document_journal>  (455) 
Bioorg. Med. Chem. Lett.

>  <bao_endpoint>  (455) 
BAO_0000190

>  <potential_duplicate>  (455) 
False

>  <uo_units>  (455) 
UO_0000065

>  <canonical_smiles>  (455) 
COc1ccc(cc1OC)C2=C(N)Oc3ccccc3C2=O

>  <parent_molecule_chembl_id>  (455) 
CHEMBL2019145

>  <assay_type>  (455) 
B

>  <src_id>  (455) 
1

>  <ligand_efficiency>  (455) 
{u'le': u'0.32', u'bei': u'17.09', u'sei': u'7.18', u'lle': u'2.47'}

>  <standard_flag>  (455) 
True

>  <molecule_chembl_id>  (455) 
CHEMBL2019145

>  <target_organism>  (455) 
Homo sapiens

>  <standard_units>  (455) 
nM

>  <record_id>  (455) 
1637091

>  <document_chembl_id>  (455) 
CHEMBL2016452

>  <bao_format>  (455) 
BAO_0000357

>  <data_validity_description>  (455) 
None

>  <activity_id>  (455) 
10852793

>  <standard_type>  (455) 
IC50

>  <target_chembl_id>  (455) 
CHEMBL205

>  <data_validity_comment>  (455) 
None

>  <published_value>  (455) 
8.28

>  <document_year>  (455) 
2012

>  <target_pref_name>  (455) 
Carbonic anhydrase II

>  <assay_chembl_id>  (455) 
CHEMBL2019838

>  <standard_relation>  (455) 
=

>  <assay_description>  (455) 
Inhibition of cytosolic human carbonic anhydrase 2 preincubated for 15 mins by stopped flow CO2 hydration assay

>  <published_relation>  (455) 
=

>  <standard_value>  (455) 
8280

>  <qudt_units>  (455) 
http://www.openphacts.org/units/Nanomolar

>  <target_tax_id>  (455) 
9606

>  <bao_label>  (455) 
single protein format

>  <published_units>  (455) 
uM

>  <pchembl_value>  (455) 
5.08

>  <published_type>  (455) 
IC50

>  <activity_comment>  (455) 
None

$$$$

     RDKit          

 23 25  0  0  0  0  0  0  0  0999 V2000
    0.0000    0.0000    0.0000 C   0  0  0  0  0  0  0  0  0  0  0  0
    0.0000    0.0000    0.0000 O   0  0  0  0  0  0  0  0  0  0  0  0
    0.0000    0.0000    0.0000 C   0  0  0  0  0  0  0  0  0  0  0  0
    0.0000    0.0000    0.0000 C   0  0  0  0  0  0  0  0  0  0  0  0
    0.0000    0.0000    0.0000 C   0  0  0  0  0  0  0  0  0  0  0  0
    0.0000    0.0000    0.0000 C   0  0  0  0  0  0  0  0  0  0  0  0
    0.0000    0.0000    0.0000 C   0  0  0  0  0  0  0  0  0  0  0  0
    0.0000    0.0000    0.0000 C   0  0  0  0  0  0  0  0  0  0  0  0
    0.0000    0.0000    0.0000 O   0  0  0  0  0  0  0  0  0  0  0  0
    0.0000    0.0000    0.0000 C   0  0  0  0  0  0  0  0  0  0  0  0
    0.0000    0.0000    0.0000 C   0  0  0  0  0  0  0  0  0  0  0  0
    0.0000    0.0000    0.0000 C   0  0  0  0  0  0  0  0  0  0  0  0
    0.0000    0.0000    0.0000 N   0  0  0  0  0  0  0  0  0  0  0  0
    0.0000    0.0000    0.0000 O   0  0  0  0  0  0  0  0  0  0  0  0
    0.0000    0.0000    0.0000 C   0  0  0  0  0  0  0  0  0  0  0  0
    0.0000    0.0000    0.0000 C   0  0  0  0  0  0  0  0  0  0  0  0
    0.0000    0.0000    0.0000 C   0  0  0  0  0  0  0  0  0  0  0  0
    0.0000    0.0000    0.0000 C   0  0  0  0  0  0  0  0  0  0  0  0
    0.0000    0.0000    0.0000 Cl  0  0  0  0  0  0  0  0  0  0  0  0
    0.0000    0.0000    0.0000 C   0  0  0  0  0  0  0  0  0  0  0  0
    0.0000    0.0000    0.0000 C   0  0  0  0  0  0  0  0  0  0  0  0
    0.0000    0.0000    0.0000 C   0  0  0  0  0  0  0  0  0  0  0  0
    0.0000    0.0000    0.0000 O   0  0  0  0  0  0  0  0  0  0  0  0
  1  2  1  0
  2  3  1  0
  3  4  2  0
  4  5  1  0
  5  6  2  0
  6  7  1  0
  7  8  2  0
  8  9  1  0
  9 10  1  0
  6 11  1  0
 11 12  2  0
 12 13  1  0
 12 14  1  0
 14 15  1  0
 15 16  2  0
 16 17  1  0
 17 18  2  0
 18 19  1  0
 18 20  1  0
 20 21  2  0
 21 22  1  0
 22 23  2  0
  8  3  1  0
 22 11  1  0
 21 15  1  0
M  END
>  <pIC50>  (456) 
5.12

>  <ChEMBL_ID>  (456) 
CHEMBL2019146

>  <document_journal>  (456) 
Bioorg. Med. Chem. Lett.

>  <bao_endpoint>  (456) 
BAO_0000190

>  <potential_duplicate>  (456) 
False

>  <uo_units>  (456) 
UO_0000065

>  <canonical_smiles>  (456) 
COc1ccc(cc1OC)C2=C(N)Oc3ccc(Cl)cc3C2=O

>  <parent_molecule_chembl_id>  (456) 
CHEMBL2019146

>  <assay_type>  (456) 
B

>  <src_id>  (456) 
1

>  <ligand_efficiency>  (456) 
{u'le': u'0.3', u'bei': u'15.43', u'sei': u'7.23', u'lle': u'1.84'}

>  <standard_flag>  (456) 
True

>  <molecule_chembl_id>  (456) 
CHEMBL2019146

>  <target_organism>  (456) 
Homo sapiens

>  <standard_units>  (456) 
nM

>  <record_id>  (456) 
1637092

>  <document_chembl_id>  (456) 
CHEMBL2016452

>  <bao_format>  (456) 
BAO_0000357

>  <data_validity_description>  (456) 
None

>  <activity_id>  (456) 
10852795

>  <standard_type>  (456) 
IC50

>  <target_chembl_id>  (456) 
CHEMBL205

>  <data_validity_comment>  (456) 
None

>  <published_value>  (456) 
7.59

>  <document_year>  (456) 
2012

>  <target_pref_name>  (456) 
Carbonic anhydrase II

>  <assay_chembl_id>  (456) 
CHEMBL2019838

>  <standard_relation>  (456) 
=

>  <assay_description>  (456) 
Inhibition of cytosolic human carbonic anhydrase 2 preincubated for 15 mins by stopped flow CO2 hydration assay

>  <published_relation>  (456) 
=

>  <standard_value>  (456) 
7590

>  <qudt_units>  (456) 
http://www.openphacts.org/units/Nanomolar

>  <target_tax_id>  (456) 
9606

>  <bao_label>  (456) 
single protein format

>  <published_units>  (456) 
uM

>  <pchembl_value>  (456) 
5.12

>  <published_type>  (456) 
IC50

>  <activity_comment>  (456) 
None

$$$$

     RDKit          

 23 25  0  0  0  0  0  0  0  0999 V2000
    0.0000    0.0000    0.0000 C   0  0  0  0  0  0  0  0  0  0  0  0
    0.0000    0.0000    0.0000 O   0  0  0  0  0  0  0  0  0  0  0  0
    0.0000    0.0000    0.0000 C   0  0  0  0  0  0  0  0  0  0  0  0
    0.0000    0.0000    0.0000 C   0  0  0  0  0  0  0  0  0  0  0  0
    0.0000    0.0000    0.0000 C   0  0  0  0  0  0  0  0  0  0  0  0
    0.0000    0.0000    0.0000 C   0  0  0  0  0  0  0  0  0  0  0  0
    0.0000    0.0000    0.0000 C   0  0  0  0  0  0  0  0  0  0  0  0
    0.0000    0.0000    0.0000 C   0  0  0  0  0  0  0  0  0  0  0  0
    0.0000    0.0000    0.0000 O   0  0  0  0  0  0  0  0  0  0  0  0
    0.0000    0.0000    0.0000 C   0  0  0  0  0  0  0  0  0  0  0  0
    0.0000    0.0000    0.0000 C   0  0  0  0  0  0  0  0  0  0  0  0
    0.0000    0.0000    0.0000 C   0  0  0  0  0  0  0  0  0  0  0  0
    0.0000    0.0000    0.0000 N   0  0  0  0  0  0  0  0  0  0  0  0
    0.0000    0.0000    0.0000 O   0  0  0  0  0  0  0  0  0  0  0  0
    0.0000    0.0000    0.0000 C   0  0  0  0  0  0  0  0  0  0  0  0
    0.0000    0.0000    0.0000 C   0  0  0  0  0  0  0  0  0  0  0  0
    0.0000    0.0000    0.0000 C   0  0  0  0  0  0  0  0  0  0  0  0
    0.0000    0.0000    0.0000 Cl  0  0  0  0  0  0  0  0  0  0  0  0
    0.0000    0.0000    0.0000 C   0  0  0  0  0  0  0  0  0  0  0  0
    0.0000    0.0000    0.0000 C   0  0  0  0  0  0  0  0  0  0  0  0
    0.0000    0.0000    0.0000 C   0  0  0  0  0  0  0  0  0  0  0  0
    0.0000    0.0000    0.0000 C   0  0  0  0  0  0  0  0  0  0  0  0
    0.0000    0.0000    0.0000 O   0  0  0  0  0  0  0  0  0  0  0  0
  1  2  1  0
  2  3  1  0
  3  4  2  0
  4  5  1  0
  5  6  2  0
  6  7  1  0
  7  8  2  0
  8  9  1  0
  9 10  1  0
  6 11  1  0
 11 12  2  0
 12 13  1  0
 12 14  1  0
 14 15  1  0
 15 16  2  0
 16 17  1  0
 17 18  1  0
 17 19  2  0
 19 20  1  0
 20 21  2  0
 21 22  1  0
 22 23  2  0
  8  3  1  0
 22 11  1  0
 21 15  1  0
M  END
>  <pIC50>  (457) 
4.86

>  <ChEMBL_ID>  (457) 
CHEMBL2019147

>  <document_journal>  (457) 
Bioorg. Med. Chem. Lett.

>  <bao_endpoint>  (457) 
BAO_0000190

>  <potential_duplicate>  (457) 
False

>  <uo_units>  (457) 
UO_0000065

>  <canonical_smiles>  (457) 
COc1ccc(cc1OC)C2=C(N)Oc3cc(Cl)ccc3C2=O

>  <parent_molecule_chembl_id>  (457) 
CHEMBL2019147

>  <assay_type>  (457) 
B

>  <src_id>  (457) 
1

>  <ligand_efficiency>  (457) 
{u'le': u'0.29', u'bei': u'14.66', u'sei': u'6.87', u'lle': u'1.58'}

>  <standard_flag>  (457) 
True

>  <molecule_chembl_id>  (457) 
CHEMBL2019147

>  <target_organism>  (457) 
Homo sapiens

>  <standard_units>  (457) 
nM

>  <record_id>  (457) 
1637093

>  <document_chembl_id>  (457) 
CHEMBL2016452

>  <bao_format>  (457) 
BAO_0000357

>  <data_validity_description>  (457) 
None

>  <activity_id>  (457) 
10852797

>  <standard_type>  (457) 
IC50

>  <target_chembl_id>  (457) 
CHEMBL205

>  <data_validity_comment>  (457) 
None

>  <published_value>  (457) 
13.7

>  <document_year>  (457) 
2012

>  <target_pref_name>  (457) 
Carbonic anhydrase II

>  <assay_chembl_id>  (457) 
CHEMBL2019838

>  <standard_relation>  (457) 
=

>  <assay_description>  (457) 
Inhibition of cytosolic human carbonic anhydrase 2 preincubated for 15 mins by stopped flow CO2 hydration assay

>  <published_relation>  (457) 
=

>  <standard_value>  (457) 
13700

>  <qudt_units>  (457) 
http://www.openphacts.org/units/Nanomolar

>  <target_tax_id>  (457) 
9606

>  <bao_label>  (457) 
single protein format

>  <published_units>  (457) 
uM

>  <pchembl_value>  (457) 
4.86

>  <published_type>  (457) 
IC50

>  <activity_comment>  (457) 
None

$$$$

     RDKit          

 20 22  0  0  0  0  0  0  0  0999 V2000
    0.0000    0.0000    0.0000 C   0  0  0  0  0  0  0  0  0  0  0  0
    0.0000    0.0000    0.0000 O   0  0  0  0  0  0  0  0  0  0  0  0
    0.0000    0.0000    0.0000 C   0  0  0  0  0  0  0  0  0  0  0  0
    0.0000    0.0000    0.0000 C   0  0  0  0  0  0  0  0  0  0  0  0
    0.0000    0.0000    0.0000 C   0  0  0  0  0  0  0  0  0  0  0  0
    0.0000    0.0000    0.0000 C   0  0  0  0  0  0  0  0  0  0  0  0
    0.0000    0.0000    0.0000 C   0  0  0  0  0  0  0  0  0  0  0  0
    0.0000    0.0000    0.0000 O   0  0  0  0  0  0  0  0  0  0  0  0
    0.0000    0.0000    0.0000 C   0  0  0  0  0  0  0  0  0  0  0  0
    0.0000    0.0000    0.0000 C   0  0  0  0  0  0  0  0  0  0  0  0
    0.0000    0.0000    0.0000 N   0  0  0  0  0  0  0  0  0  0  0  0
    0.0000    0.0000    0.0000 O   0  0  0  0  0  0  0  0  0  0  0  0
    0.0000    0.0000    0.0000 C   0  0  0  0  0  0  0  0  0  0  0  0
    0.0000    0.0000    0.0000 C   0  0  0  0  0  0  0  0  0  0  0  0
    0.0000    0.0000    0.0000 C   0  0  0  0  0  0  0  0  0  0  0  0
    0.0000    0.0000    0.0000 C   0  0  0  0  0  0  0  0  0  0  0  0
    0.0000    0.0000    0.0000 C   0  0  0  0  0  0  0  0  0  0  0  0
    0.0000    0.0000    0.0000 C   0  0  0  0  0  0  0  0  0  0  0  0
    0.0000    0.0000    0.0000 C   0  0  0  0  0  0  0  0  0  0  0  0
    0.0000    0.0000    0.0000 C   0  0  0  0  0  0  0  0  0  0  0  0
  1  2  1  0
  2  3  1  0
  3  4  2  0
  4  5  1  0
  5  6  2  0
  6  7  1  0
  7  8  2  0
  7  9  1  0
  9 10  2  0
 10 11  1  0
 10 12  1  0
 12 13  1  0
 13 14  2  0
  9 15  1  0
 15 16  2  0
 16 17  1  0
 17 18  2  0
 18 19  1  0
 19 20  2  0
 14  3  1  0
 13  6  1  0
 20 15  1  0
M  END
>  <pIC50>  (458) 
5.1

>  <ChEMBL_ID>  (458) 
CHEMBL2019148

>  <document_journal>  (458) 
Bioorg. Med. Chem. Lett.

>  <bao_endpoint>  (458) 
BAO_0000190

>  <potential_duplicate>  (458) 
False

>  <uo_units>  (458) 
UO_0000065

>  <canonical_smiles>  (458) 
COc1ccc2C(=O)C(=C(N)Oc2c1)c3ccccc3

>  <parent_molecule_chembl_id>  (458) 
CHEMBL2019148

>  <assay_type>  (458) 
B

>  <src_id>  (458) 
1

>  <ligand_efficiency>  (458) 
{u'le': u'0.35', u'bei': u'19.1', u'sei': u'8.29', u'lle': u'2.47'}

>  <standard_flag>  (458) 
True

>  <molecule_chembl_id>  (458) 
CHEMBL2019148

>  <target_organism>  (458) 
Homo sapiens

>  <standard_units>  (458) 
nM

>  <record_id>  (458) 
1637094

>  <document_chembl_id>  (458) 
CHEMBL2016452

>  <bao_format>  (458) 
BAO_0000357

>  <data_validity_description>  (458) 
None

>  <activity_id>  (458) 
10852799

>  <standard_type>  (458) 
IC50

>  <target_chembl_id>  (458) 
CHEMBL205

>  <data_validity_comment>  (458) 
None

>  <published_value>  (458) 
7.87

>  <document_year>  (458) 
2012

>  <target_pref_name>  (458) 
Carbonic anhydrase II

>  <assay_chembl_id>  (458) 
CHEMBL2019838

>  <standard_relation>  (458) 
=

>  <assay_description>  (458) 
Inhibition of cytosolic human carbonic anhydrase 2 preincubated for 15 mins by stopped flow CO2 hydration assay

>  <published_relation>  (458) 
=

>  <standard_value>  (458) 
7870

>  <qudt_units>  (458) 
http://www.openphacts.org/units/Nanomolar

>  <target_tax_id>  (458) 
9606

>  <bao_label>  (458) 
single protein format

>  <published_units>  (458) 
uM

>  <pchembl_value>  (458) 
5.1

>  <published_type>  (458) 
IC50

>  <activity_comment>  (458) 
None

$$$$

     RDKit          

 21 23  0  0  0  0  0  0  0  0999 V2000
    0.0000    0.0000    0.0000 C   0  0  0  0  0  0  0  0  0  0  0  0
    0.0000    0.0000    0.0000 O   0  0  0  0  0  0  0  0  0  0  0  0
    0.0000    0.0000    0.0000 C   0  0  0  0  0  0  0  0  0  0  0  0
    0.0000    0.0000    0.0000 C   0  0  0  0  0  0  0  0  0  0  0  0
    0.0000    0.0000    0.0000 C   0  0  0  0  0  0  0  0  0  0  0  0
    0.0000    0.0000    0.0000 C   0  0  0  0  0  0  0  0  0  0  0  0
    0.0000    0.0000    0.0000 C   0  0  0  0  0  0  0  0  0  0  0  0
    0.0000    0.0000    0.0000 O   0  0  0  0  0  0  0  0  0  0  0  0
    0.0000    0.0000    0.0000 C   0  0  0  0  0  0  0  0  0  0  0  0
    0.0000    0.0000    0.0000 C   0  0  0  0  0  0  0  0  0  0  0  0
    0.0000    0.0000    0.0000 N   0  0  0  0  0  0  0  0  0  0  0  0
    0.0000    0.0000    0.0000 O   0  0  0  0  0  0  0  0  0  0  0  0
    0.0000    0.0000    0.0000 C   0  0  0  0  0  0  0  0  0  0  0  0
    0.0000    0.0000    0.0000 C   0  0  0  0  0  0  0  0  0  0  0  0
    0.0000    0.0000    0.0000 C   0  0  0  0  0  0  0  0  0  0  0  0
    0.0000    0.0000    0.0000 C   0  0  0  0  0  0  0  0  0  0  0  0
    0.0000    0.0000    0.0000 C   0  0  0  0  0  0  0  0  0  0  0  0
    0.0000    0.0000    0.0000 C   0  0  0  0  0  0  0  0  0  0  0  0
    0.0000    0.0000    0.0000 Cl  0  0  0  0  0  0  0  0  0  0  0  0
    0.0000    0.0000    0.0000 C   0  0  0  0  0  0  0  0  0  0  0  0
    0.0000    0.0000    0.0000 C   0  0  0  0  0  0  0  0  0  0  0  0
  1  2  1  0
  2  3  1  0
  3  4  2  0
  4  5  1  0
  5  6  2  0
  6  7  1  0
  7  8  2  0
  7  9  1  0
  9 10  2  0
 10 11  1  0
 10 12  1  0
 12 13  1  0
 13 14  2  0
  9 15  1  0
 15 16  2  0
 16 17  1  0
 17 18  2  0
 18 19  1  0
 18 20  1  0
 20 21  2  0
 14  3  1  0
 13  6  1  0
 21 15  1  0
M  END
>  <pIC50>  (459) 
4.44

>  <ChEMBL_ID>  (459) 
CHEMBL2019149

>  <document_journal>  (459) 
Bioorg. Med. Chem. Lett.

>  <bao_endpoint>  (459) 
BAO_0000190

>  <potential_duplicate>  (459) 
False

>  <uo_units>  (459) 
UO_0000065

>  <canonical_smiles>  (459) 
COc1ccc2C(=O)C(=C(N)Oc2c1)c3ccc(Cl)cc3

>  <parent_molecule_chembl_id>  (459) 
CHEMBL2019149

>  <assay_type>  (459) 
B

>  <src_id>  (459) 
1

>  <ligand_efficiency>  (459) 
{u'le': u'0.29', u'bei': u'14.7', u'sei': u'7.21', u'lle': u'1.14'}

>  <standard_flag>  (459) 
True

>  <molecule_chembl_id>  (459) 
CHEMBL2019149

>  <target_organism>  (459) 
Homo sapiens

>  <standard_units>  (459) 
nM

>  <record_id>  (459) 
1637095

>  <document_chembl_id>  (459) 
CHEMBL2016452

>  <bao_format>  (459) 
BAO_0000357

>  <data_validity_description>  (459) 
None

>  <activity_id>  (459) 
10852801

>  <standard_type>  (459) 
IC50

>  <target_chembl_id>  (459) 
CHEMBL205

>  <data_validity_comment>  (459) 
None

>  <published_value>  (459) 
36.7

>  <document_year>  (459) 
2012

>  <target_pref_name>  (459) 
Carbonic anhydrase II

>  <assay_chembl_id>  (459) 
CHEMBL2019838

>  <standard_relation>  (459) 
=

>  <assay_description>  (459) 
Inhibition of cytosolic human carbonic anhydrase 2 preincubated for 15 mins by stopped flow CO2 hydration assay

>  <published_relation>  (459) 
=

>  <standard_value>  (459) 
36700

>  <qudt_units>  (459) 
http://www.openphacts.org/units/Nanomolar

>  <target_tax_id>  (459) 
9606

>  <bao_label>  (459) 
single protein format

>  <published_units>  (459) 
uM

>  <pchembl_value>  (459) 
4.44

>  <published_type>  (459) 
IC50

>  <activity_comment>  (459) 
None

$$$$

     RDKit          

 22 24  0  0  0  0  0  0  0  0999 V2000
    0.0000    0.0000    0.0000 C   0  0  0  0  0  0  0  0  0  0  0  0
    0.0000    0.0000    0.0000 O   0  0  0  0  0  0  0  0  0  0  0  0
    0.0000    0.0000    0.0000 C   0  0  0  0  0  0  0  0  0  0  0  0
    0.0000    0.0000    0.0000 C   0  0  0  0  0  0  0  0  0  0  0  0
    0.0000    0.0000    0.0000 C   0  0  0  0  0  0  0  0  0  0  0  0
    0.0000    0.0000    0.0000 C   0  0  0  0  0  0  0  0  0  0  0  0
    0.0000    0.0000    0.0000 C   0  0  0  0  0  0  0  0  0  0  0  0
    0.0000    0.0000    0.0000 C   0  0  0  0  0  0  0  0  0  0  0  0
    0.0000    0.0000    0.0000 C   0  0  0  0  0  0  0  0  0  0  0  0
    0.0000    0.0000    0.0000 C   0  0  0  0  0  0  0  0  0  0  0  0
    0.0000    0.0000    0.0000 N   0  0  0  0  0  0  0  0  0  0  0  0
    0.0000    0.0000    0.0000 O   0  0  0  0  0  0  0  0  0  0  0  0
    0.0000    0.0000    0.0000 C   0  0  0  0  0  0  0  0  0  0  0  0
    0.0000    0.0000    0.0000 C   0  0  0  0  0  0  0  0  0  0  0  0
    0.0000    0.0000    0.0000 C   0  0  0  0  0  0  0  0  0  0  0  0
    0.0000    0.0000    0.0000 O   0  0  0  0  0  0  0  0  0  0  0  0
    0.0000    0.0000    0.0000 C   0  0  0  0  0  0  0  0  0  0  0  0
    0.0000    0.0000    0.0000 C   0  0  0  0  0  0  0  0  0  0  0  0
    0.0000    0.0000    0.0000 C   0  0  0  0  0  0  0  0  0  0  0  0
    0.0000    0.0000    0.0000 C   0  0  0  0  0  0  0  0  0  0  0  0
    0.0000    0.0000    0.0000 C   0  0  0  0  0  0  0  0  0  0  0  0
    0.0000    0.0000    0.0000 O   0  0  0  0  0  0  0  0  0  0  0  0
  1  2  1  0
  2  3  1  0
  3  4  2  0
  4  5  1  0
  5  6  2  0
  6  7  1  0
  7  8  2  0
  6  9  1  0
  9 10  2  0
 10 11  1  0
 10 12  1  0
 12 13  1  0
 13 14  2  0
 14 15  1  0
 15 16  1  0
 16 17  1  0
 15 18  2  0
 18 19  1  0
 19 20  2  0
 20 21  1  0
 21 22  2  0
  8  3  1  0
 21  9  1  0
 20 13  1  0
M  END
>  <pIC50>  (460) 
5.06

>  <ChEMBL_ID>  (460) 
CHEMBL2019150

>  <document_journal>  (460) 
Bioorg. Med. Chem. Lett.

>  <bao_endpoint>  (460) 
BAO_0000190

>  <potential_duplicate>  (460) 
False

>  <uo_units>  (460) 
UO_0000065

>  <canonical_smiles>  (460) 
COc1ccc(cc1)C2=C(N)Oc3cc(OC)ccc3C2=O

>  <parent_molecule_chembl_id>  (460) 
CHEMBL2019150

>  <assay_type>  (460) 
B

>  <src_id>  (460) 
1

>  <ligand_efficiency>  (460) 
{u'le': u'0.31', u'bei': u'17.01', u'sei': u'7.15', u'lle': u'2.45'}

>  <standard_flag>  (460) 
True

>  <molecule_chembl_id>  (460) 
CHEMBL2019150

>  <target_organism>  (460) 
Homo sapiens

>  <standard_units>  (460) 
nM

>  <record_id>  (460) 
1637096

>  <document_chembl_id>  (460) 
CHEMBL2016452

>  <bao_format>  (460) 
BAO_0000357

>  <data_validity_description>  (460) 
None

>  <activity_id>  (460) 
10852803

>  <standard_type>  (460) 
IC50

>  <target_chembl_id>  (460) 
CHEMBL205

>  <data_validity_comment>  (460) 
None

>  <published_value>  (460) 
8.74

>  <document_year>  (460) 
2012

>  <target_pref_name>  (460) 
Carbonic anhydrase II

>  <assay_chembl_id>  (460) 
CHEMBL2019838

>  <standard_relation>  (460) 
=

>  <assay_description>  (460) 
Inhibition of cytosolic human carbonic anhydrase 2 preincubated for 15 mins by stopped flow CO2 hydration assay

>  <published_relation>  (460) 
=

>  <standard_value>  (460) 
8740

>  <qudt_units>  (460) 
http://www.openphacts.org/units/Nanomolar

>  <target_tax_id>  (460) 
9606

>  <bao_label>  (460) 
single protein format

>  <published_units>  (460) 
uM

>  <pchembl_value>  (460) 
5.06

>  <published_type>  (460) 
IC50

>  <activity_comment>  (460) 
None

$$$$

     RDKit          

 24 26  0  0  0  0  0  0  0  0999 V2000
    0.0000    0.0000    0.0000 C   0  0  0  0  0  0  0  0  0  0  0  0
    0.0000    0.0000    0.0000 O   0  0  0  0  0  0  0  0  0  0  0  0
    0.0000    0.0000    0.0000 C   0  0  0  0  0  0  0  0  0  0  0  0
    0.0000    0.0000    0.0000 C   0  0  0  0  0  0  0  0  0  0  0  0
    0.0000    0.0000    0.0000 C   0  0  0  0  0  0  0  0  0  0  0  0
    0.0000    0.0000    0.0000 C   0  0  0  0  0  0  0  0  0  0  0  0
    0.0000    0.0000    0.0000 C   0  0  0  0  0  0  0  0  0  0  0  0
    0.0000    0.0000    0.0000 O   0  0  0  0  0  0  0  0  0  0  0  0
    0.0000    0.0000    0.0000 C   0  0  0  0  0  0  0  0  0  0  0  0
    0.0000    0.0000    0.0000 C   0  0  0  0  0  0  0  0  0  0  0  0
    0.0000    0.0000    0.0000 N   0  0  0  0  0  0  0  0  0  0  0  0
    0.0000    0.0000    0.0000 O   0  0  0  0  0  0  0  0  0  0  0  0
    0.0000    0.0000    0.0000 C   0  0  0  0  0  0  0  0  0  0  0  0
    0.0000    0.0000    0.0000 C   0  0  0  0  0  0  0  0  0  0  0  0
    0.0000    0.0000    0.0000 C   0  0  0  0  0  0  0  0  0  0  0  0
    0.0000    0.0000    0.0000 C   0  0  0  0  0  0  0  0  0  0  0  0
    0.0000    0.0000    0.0000 C   0  0  0  0  0  0  0  0  0  0  0  0
    0.0000    0.0000    0.0000 C   0  0  0  0  0  0  0  0  0  0  0  0
    0.0000    0.0000    0.0000 O   0  0  0  0  0  0  0  0  0  0  0  0
    0.0000    0.0000    0.0000 C   0  0  0  0  0  0  0  0  0  0  0  0
    0.0000    0.0000    0.0000 C   0  0  0  0  0  0  0  0  0  0  0  0
    0.0000    0.0000    0.0000 O   0  0  0  0  0  0  0  0  0  0  0  0
    0.0000    0.0000    0.0000 C   0  0  0  0  0  0  0  0  0  0  0  0
    0.0000    0.0000    0.0000 C   0  0  0  0  0  0  0  0  0  0  0  0
  1  2  1  0
  2  3  1  0
  3  4  2  0
  4  5  1  0
  5  6  2  0
  6  7  1  0
  7  8  2  0
  7  9  1  0
  9 10  2  0
 10 11  1  0
 10 12  1  0
 12 13  1  0
 13 14  2  0
  9 15  1  0
 15 16  2  0
 16 17  1  0
 17 18  2  0
 18 19  1  0
 19 20  1  0
 18 21  1  0
 21 22  1  0
 22 23  1  0
 21 24  2  0
 14  3  1  0
 13  6  1  0
 24 15  1  0
M  END
>  <pIC50>  (461) 
5.08

>  <ChEMBL_ID>  (461) 
CHEMBL2019151

>  <document_journal>  (461) 
Bioorg. Med. Chem. Lett.

>  <bao_endpoint>  (461) 
BAO_0000190

>  <potential_duplicate>  (461) 
False

>  <uo_units>  (461) 
UO_0000065

>  <canonical_smiles>  (461) 
COc1ccc2C(=O)C(=C(N)Oc2c1)c3ccc(OC)c(OC)c3

>  <parent_molecule_chembl_id>  (461) 
CHEMBL2019151

>  <assay_type>  (461) 
B

>  <src_id>  (461) 
1

>  <ligand_efficiency>  (461) 
{u'le': u'0.29', u'bei': u'15.51', u'sei': u'6.35', u'lle': u'2.48'}

>  <standard_flag>  (461) 
True

>  <molecule_chembl_id>  (461) 
CHEMBL2019151

>  <target_organism>  (461) 
Homo sapiens

>  <standard_units>  (461) 
nM

>  <record_id>  (461) 
1637097

>  <document_chembl_id>  (461) 
CHEMBL2016452

>  <bao_format>  (461) 
BAO_0000357

>  <data_validity_description>  (461) 
None

>  <activity_id>  (461) 
10852805

>  <standard_type>  (461) 
IC50

>  <target_chembl_id>  (461) 
CHEMBL205

>  <data_validity_comment>  (461) 
None

>  <published_value>  (461) 
8.35

>  <document_year>  (461) 
2012

>  <target_pref_name>  (461) 
Carbonic anhydrase II

>  <assay_chembl_id>  (461) 
CHEMBL2019838

>  <standard_relation>  (461) 
=

>  <assay_description>  (461) 
Inhibition of cytosolic human carbonic anhydrase 2 preincubated for 15 mins by stopped flow CO2 hydration assay

>  <published_relation>  (461) 
=

>  <standard_value>  (461) 
8350

>  <qudt_units>  (461) 
http://www.openphacts.org/units/Nanomolar

>  <target_tax_id>  (461) 
9606

>  <bao_label>  (461) 
single protein format

>  <published_units>  (461) 
uM

>  <pchembl_value>  (461) 
5.08

>  <published_type>  (461) 
IC50

>  <activity_comment>  (461) 
None

$$$$

     RDKit          

 19 21  0  0  0  0  0  0  0  0999 V2000
    0.0000    0.0000    0.0000 N   0  0  0  0  0  0  0  0  0  0  0  0
    0.0000    0.0000    0.0000 C   0  0  0  0  0  0  0  0  0  0  0  0
    0.0000    0.0000    0.0000 C   0  0  0  0  0  0  0  0  0  0  0  0
    0.0000    0.0000    0.0000 C   0  0  0  0  0  0  0  0  0  0  0  0
    0.0000    0.0000    0.0000 O   0  0  0  0  0  0  0  0  0  0  0  0
    0.0000    0.0000    0.0000 C   0  0  0  0  0  0  0  0  0  0  0  0
    0.0000    0.0000    0.0000 C   0  0  0  0  0  0  0  0  0  0  0  0
    0.0000    0.0000    0.0000 C   0  0  0  0  0  0  0  0  0  0  0  0
    0.0000    0.0000    0.0000 Cl  0  0  0  0  0  0  0  0  0  0  0  0
    0.0000    0.0000    0.0000 C   0  0  0  0  0  0  0  0  0  0  0  0
    0.0000    0.0000    0.0000 C   0  0  0  0  0  0  0  0  0  0  0  0
    0.0000    0.0000    0.0000 C   0  0  0  0  0  0  0  0  0  0  0  0
    0.0000    0.0000    0.0000 N   0  0  0  0  0  0  0  0  0  0  0  0
    0.0000    0.0000    0.0000 C   0  0  0  0  0  0  0  0  0  0  0  0
    0.0000    0.0000    0.0000 C   0  0  0  0  0  0  0  0  0  0  0  0
    0.0000    0.0000    0.0000 C   0  0  0  0  0  0  0  0  0  0  0  0
    0.0000    0.0000    0.0000 C   0  0  0  0  0  0  0  0  0  0  0  0
    0.0000    0.0000    0.0000 C   0  0  0  0  0  0  0  0  0  0  0  0
    0.0000    0.0000    0.0000 C   0  0  0  0  0  0  0  0  0  0  0  0
  1  2  1  0
  2  3  2  0
  3  4  1  0
  4  5  2  0
  4  6  1  0
  6  7  2  0
  7  8  1  0
  8  9  1  0
  8 10  2  0
 10 11  1  0
 11 12  2  0
 12 13  1  0
  3 14  1  0
 14 15  2  0
 15 16  1  0
 16 17  2  0
 17 18  1  0
 18 19  2  0
 13  2  1  0
 12  6  1  0
 19 14  1  0
M  END
>  <pIC50>  (462) 
5.05

>  <ChEMBL_ID>  (462) 
CHEMBL2019152

>  <document_journal>  (462) 
Bioorg. Med. Chem. Lett.

>  <bao_endpoint>  (462) 
BAO_0000190

>  <potential_duplicate>  (462) 
False

>  <uo_units>  (462) 
UO_0000065

>  <canonical_smiles>  (462) 
NC1=C(C(=O)c2cc(Cl)ccc2N1)c3ccccc3

>  <parent_molecule_chembl_id>  (462) 
CHEMBL2019152

>  <assay_type>  (462) 
B

>  <src_id>  (462) 
1

>  <ligand_efficiency>  (462) 
{u'le': u'0.36', u'bei': u'18.64', u'sei': u'9.15', u'lle': u'1.9'}

>  <standard_flag>  (462) 
True

>  <molecule_chembl_id>  (462) 
CHEMBL2019152

>  <target_organism>  (462) 
Homo sapiens

>  <standard_units>  (462) 
nM

>  <record_id>  (462) 
1637098

>  <document_chembl_id>  (462) 
CHEMBL2016452

>  <bao_format>  (462) 
BAO_0000357

>  <data_validity_description>  (462) 
None

>  <activity_id>  (462) 
10852807

>  <standard_type>  (462) 
IC50

>  <target_chembl_id>  (462) 
CHEMBL205

>  <data_validity_comment>  (462) 
None

>  <published_value>  (462) 
9.02

>  <document_year>  (462) 
2012

>  <target_pref_name>  (462) 
Carbonic anhydrase II

>  <assay_chembl_id>  (462) 
CHEMBL2019838

>  <standard_relation>  (462) 
=

>  <assay_description>  (462) 
Inhibition of cytosolic human carbonic anhydrase 2 preincubated for 15 mins by stopped flow CO2 hydration assay

>  <published_relation>  (462) 
=

>  <standard_value>  (462) 
9020

>  <qudt_units>  (462) 
http://www.openphacts.org/units/Nanomolar

>  <target_tax_id>  (462) 
9606

>  <bao_label>  (462) 
single protein format

>  <published_units>  (462) 
uM

>  <pchembl_value>  (462) 
5.05

>  <published_type>  (462) 
IC50

>  <activity_comment>  (462) 
None

$$$$

     RDKit          

 19 21  0  0  0  0  0  0  0  0999 V2000
    0.0000    0.0000    0.0000 N   0  0  0  0  0  0  0  0  0  0  0  0
    0.0000    0.0000    0.0000 C   0  0  0  0  0  0  0  0  0  0  0  0
    0.0000    0.0000    0.0000 C   0  0  0  0  0  0  0  0  0  0  0  0
    0.0000    0.0000    0.0000 C   0  0  0  0  0  0  0  0  0  0  0  0
    0.0000    0.0000    0.0000 O   0  0  0  0  0  0  0  0  0  0  0  0
    0.0000    0.0000    0.0000 C   0  0  0  0  0  0  0  0  0  0  0  0
    0.0000    0.0000    0.0000 C   0  0  0  0  0  0  0  0  0  0  0  0
    0.0000    0.0000    0.0000 C   0  0  0  0  0  0  0  0  0  0  0  0
    0.0000    0.0000    0.0000 C   0  0  0  0  0  0  0  0  0  0  0  0
    0.0000    0.0000    0.0000 Cl  0  0  0  0  0  0  0  0  0  0  0  0
    0.0000    0.0000    0.0000 C   0  0  0  0  0  0  0  0  0  0  0  0
    0.0000    0.0000    0.0000 C   0  0  0  0  0  0  0  0  0  0  0  0
    0.0000    0.0000    0.0000 N   0  0  0  0  0  0  0  0  0  0  0  0
    0.0000    0.0000    0.0000 C   0  0  0  0  0  0  0  0  0  0  0  0
    0.0000    0.0000    0.0000 C   0  0  0  0  0  0  0  0  0  0  0  0
    0.0000    0.0000    0.0000 C   0  0  0  0  0  0  0  0  0  0  0  0
    0.0000    0.0000    0.0000 C   0  0  0  0  0  0  0  0  0  0  0  0
    0.0000    0.0000    0.0000 C   0  0  0  0  0  0  0  0  0  0  0  0
    0.0000    0.0000    0.0000 C   0  0  0  0  0  0  0  0  0  0  0  0
  1  2  1  0
  2  3  2  0
  3  4  1  0
  4  5  2  0
  4  6  1  0
  6  7  2  0
  7  8  1  0
  8  9  2  0
  9 10  1  0
  9 11  1  0
 11 12  2  0
 12 13  1  0
  3 14  1  0
 14 15  2  0
 15 16  1  0
 16 17  2  0
 17 18  1  0
 18 19  2  0
 13  2  1  0
 12  6  1  0
 19 14  1  0
M  END
>  <pIC50>  (463) 
5.19

>  <ChEMBL_ID>  (463) 
CHEMBL2019153

>  <document_journal>  (463) 
Bioorg. Med. Chem. Lett.

>  <bao_endpoint>  (463) 
BAO_0000190

>  <potential_duplicate>  (463) 
False

>  <uo_units>  (463) 
UO_0000065

>  <canonical_smiles>  (463) 
NC1=C(C(=O)c2ccc(Cl)cc2N1)c3ccccc3

>  <parent_molecule_chembl_id>  (463) 
CHEMBL2019153

>  <assay_type>  (463) 
B

>  <src_id>  (463) 
1

>  <ligand_efficiency>  (463) 
{u'le': u'0.37', u'bei': u'19.18', u'sei': u'9.42', u'lle': u'2.05'}

>  <standard_flag>  (463) 
True

>  <molecule_chembl_id>  (463) 
CHEMBL2019153

>  <target_organism>  (463) 
Homo sapiens

>  <standard_units>  (463) 
nM

>  <record_id>  (463) 
1637099

>  <document_chembl_id>  (463) 
CHEMBL2016452

>  <bao_format>  (463) 
BAO_0000357

>  <data_validity_description>  (463) 
None

>  <activity_id>  (463) 
10852809

>  <standard_type>  (463) 
IC50

>  <target_chembl_id>  (463) 
CHEMBL205

>  <data_validity_comment>  (463) 
None

>  <published_value>  (463) 
6.44

>  <document_year>  (463) 
2012

>  <target_pref_name>  (463) 
Carbonic anhydrase II

>  <assay_chembl_id>  (463) 
CHEMBL2019838

>  <standard_relation>  (463) 
=

>  <assay_description>  (463) 
Inhibition of cytosolic human carbonic anhydrase 2 preincubated for 15 mins by stopped flow CO2 hydration assay

>  <published_relation>  (463) 
=

>  <standard_value>  (463) 
6440

>  <qudt_units>  (463) 
http://www.openphacts.org/units/Nanomolar

>  <target_tax_id>  (463) 
9606

>  <bao_label>  (463) 
single protein format

>  <published_units>  (463) 
uM

>  <pchembl_value>  (463) 
5.19

>  <published_type>  (463) 
IC50

>  <activity_comment>  (463) 
None

$$$$

     RDKit          

 20 22  0  0  0  0  0  0  0  0999 V2000
    0.0000    0.0000    0.0000 C   0  0  0  0  0  0  0  0  0  0  0  0
    0.0000    0.0000    0.0000 O   0  0  0  0  0  0  0  0  0  0  0  0
    0.0000    0.0000    0.0000 C   0  0  0  0  0  0  0  0  0  0  0  0
    0.0000    0.0000    0.0000 C   0  0  0  0  0  0  0  0  0  0  0  0
    0.0000    0.0000    0.0000 C   0  0  0  0  0  0  0  0  0  0  0  0
    0.0000    0.0000    0.0000 C   0  0  0  0  0  0  0  0  0  0  0  0
    0.0000    0.0000    0.0000 C   0  0  0  0  0  0  0  0  0  0  0  0
    0.0000    0.0000    0.0000 C   0  0  0  0  0  0  0  0  0  0  0  0
    0.0000    0.0000    0.0000 C   0  0  0  0  0  0  0  0  0  0  0  0
    0.0000    0.0000    0.0000 C   0  0  0  0  0  0  0  0  0  0  0  0
    0.0000    0.0000    0.0000 C   0  0  0  0  0  0  0  0  0  0  0  0
    0.0000    0.0000    0.0000 C   0  0  0  0  0  0  0  0  0  0  0  0
    0.0000    0.0000    0.0000 C   0  0  0  0  0  0  0  0  0  0  0  0
    0.0000    0.0000    0.0000 Cl  0  0  0  0  0  0  0  0  0  0  0  0
    0.0000    0.0000    0.0000 C   0  0  0  0  0  0  0  0  0  0  0  0
    0.0000    0.0000    0.0000 C   0  0  0  0  0  0  0  0  0  0  0  0
    0.0000    0.0000    0.0000 C   0  0  0  0  0  0  0  0  0  0  0  0
    0.0000    0.0000    0.0000 O   0  0  0  0  0  0  0  0  0  0  0  0
    0.0000    0.0000    0.0000 C   0  0  0  0  0  0  0  0  0  0  0  0
    0.0000    0.0000    0.0000 O   0  0  0  0  0  0  0  0  0  0  0  0
  1  2  1  0
  2  3  1  0
  3  4  2  0
  4  5  1  0
  5  6  2  0
  6  7  1  0
  7  8  2  0
  6  9  1  0
  9 10  2  0
 10 11  1  0
 11 12  2  0
 12 13  1  0
 13 14  1  0
 13 15  2  0
 15 16  1  0
 16 17  2  0
 17 18  1  0
 18 19  1  0
 19 20  2  0
  8  3  1  0
 19  9  1  0
 17 11  1  0
M  END
>  <pIC50>  (464) 
5.03

>  <ChEMBL_ID>  (464) 
CHEMBL2019154

>  <document_journal>  (464) 
Bioorg. Med. Chem. Lett.

>  <bao_endpoint>  (464) 
BAO_0000190

>  <potential_duplicate>  (464) 
False

>  <uo_units>  (464) 
UO_0000065

>  <canonical_smiles>  (464) 
COc1ccc(cc1)C2=Cc3cc(Cl)ccc3OC2=O

>  <parent_molecule_chembl_id>  (464) 
CHEMBL2019154

>  <assay_type>  (464) 
B

>  <src_id>  (464) 
1

>  <ligand_efficiency>  (464) 
{u'le': u'0.34', u'bei': u'17.54', u'sei': u'14.16', u'lle': u'1'}

>  <standard_flag>  (464) 
True

>  <molecule_chembl_id>  (464) 
CHEMBL2019154

>  <target_organism>  (464) 
Homo sapiens

>  <standard_units>  (464) 
nM

>  <record_id>  (464) 
1637100

>  <document_chembl_id>  (464) 
CHEMBL2016452

>  <bao_format>  (464) 
BAO_0000357

>  <data_validity_description>  (464) 
None

>  <activity_id>  (464) 
10852811

>  <standard_type>  (464) 
IC50

>  <target_chembl_id>  (464) 
CHEMBL205

>  <data_validity_comment>  (464) 
None

>  <published_value>  (464) 
9.33

>  <document_year>  (464) 
2012

>  <target_pref_name>  (464) 
Carbonic anhydrase II

>  <assay_chembl_id>  (464) 
CHEMBL2019838

>  <standard_relation>  (464) 
=

>  <assay_description>  (464) 
Inhibition of cytosolic human carbonic anhydrase 2 preincubated for 15 mins by stopped flow CO2 hydration assay

>  <published_relation>  (464) 
=

>  <standard_value>  (464) 
9330

>  <qudt_units>  (464) 
http://www.openphacts.org/units/Nanomolar

>  <target_tax_id>  (464) 
9606

>  <bao_label>  (464) 
single protein format

>  <published_units>  (464) 
uM

>  <pchembl_value>  (464) 
5.03

>  <published_type>  (464) 
IC50

>  <activity_comment>  (464) 
None

$$$$

     RDKit          

 25 26  0  0  0  0  0  0  0  0999 V2000
    0.0000    0.0000    0.0000 O   0  0  0  0  0  0  0  0  0  0  0  0
    0.0000    0.0000    0.0000 P   0  0  0  0  0  0  0  0  0  0  0  0
    0.0000    0.0000    0.0000 O   0  0  0  0  0  0  0  0  0  0  0  0
    0.0000    0.0000    0.0000 O   0  0  0  0  0  0  0  0  0  0  0  0
    0.0000    0.0000    0.0000 C   0  0  0  0  0  0  0  0  0  0  0  0
    0.0000    0.0000    0.0000 O   0  0  0  0  0  0  0  0  0  0  0  0
    0.0000    0.0000    0.0000 N   0  0  0  0  0  0  0  0  0  0  0  0
    0.0000    0.0000    0.0000 C   0  0  0  0  0  0  0  0  0  0  0  0
    0.0000    0.0000    0.0000 C   0  0  0  0  0  0  0  0  0  0  0  0
    0.0000    0.0000    0.0000 N   0  0  0  0  0  0  0  0  0  0  0  0
    0.0000    0.0000    0.0000 C   0  0  0  0  0  0  0  0  0  0  0  0
    0.0000    0.0000    0.0000 O   0  0  0  0  0  0  0  0  0  0  0  0
    0.0000    0.0000    0.0000 C   0  0  0  0  0  0  0  0  0  0  0  0
    0.0000    0.0000    0.0000 C   0  0  0  0  0  0  0  0  0  0  0  0
    0.0000    0.0000    0.0000 C   0  0  0  0  0  0  0  0  0  0  0  0
    0.0000    0.0000    0.0000 C   0  0  0  0  0  0  0  0  0  0  0  0
    0.0000    0.0000    0.0000 O   0  0  0  0  0  0  0  0  0  0  0  0
    0.0000    0.0000    0.0000 C   0  0  0  0  0  0  0  0  0  0  0  0
    0.0000    0.0000    0.0000 C   0  0  0  0  0  0  0  0  0  0  0  0
    0.0000    0.0000    0.0000 C   0  0  0  0  0  0  0  0  0  0  0  0
    0.0000    0.0000    0.0000 C   0  0  0  0  0  0  0  0  0  0  0  0
    0.0000    0.0000    0.0000 C   0  0  0  0  0  0  0  0  0  0  0  0
    0.0000    0.0000    0.0000 C   0  0  0  0  0  0  0  0  0  0  0  0
    0.0000    0.0000    0.0000 C   0  0  0  0  0  0  0  0  0  0  0  0
    0.0000    0.0000    0.0000 C   0  0  0  0  0  0  0  0  0  0  0  0
  1  2  1  0
  2  3  2  0
  2  4  1  0
  2  5  1  0
  5  6  2  0
  5  7  1  0
  7  8  1  0
  8  9  1  0
  9 10  1  0
 10 11  1  0
 11 12  2  0
 11 13  1  0
 13 14  2  0
 14 15  1  0
 15 16  2  0
 16 17  1  0
 17 18  1  0
 18 19  2  0
 19 20  1  0
 20 21  2  0
 21 22  1  0
 22 23  2  0
 16 24  1  0
 24 25  2  0
 25 13  1  0
 23 18  1  0
M  END
>  <pIC50>  (465) 
6.22

>  <ChEMBL_ID>  (465) 
CHEMBL2172745

>  <document_journal>  (465) 
J. Med. Chem.

>  <bao_endpoint>  (465) 
BAO_0000190

>  <potential_duplicate>  (465) 
False

>  <uo_units>  (465) 
UO_0000065

>  <canonical_smiles>  (465) 
OP(=O)(O)C(=O)NCCNC(=O)c1ccc(Oc2ccccc2)cc1

>  <parent_molecule_chembl_id>  (465) 
CHEMBL2172745

>  <assay_type>  (465) 
B

>  <src_id>  (465) 
1

>  <ligand_efficiency>  (465) 
{u'le': u'0.34', u'bei': u'17.06', u'sei': u'4.61', u'lle': u'4.6'}

>  <standard_flag>  (465) 
True

>  <molecule_chembl_id>  (465) 
CHEMBL2172745

>  <target_organism>  (465) 
Homo sapiens

>  <standard_units>  (465) 
nM

>  <record_id>  (465) 
1743010

>  <document_chembl_id>  (465) 
CHEMBL2169810

>  <bao_format>  (465) 
BAO_0000357

>  <data_validity_description>  (465) 
None

>  <activity_id>  (465) 
12112729

>  <standard_type>  (465) 
IC50

>  <target_chembl_id>  (465) 
CHEMBL205

>  <data_validity_comment>  (465) 
None

>  <published_value>  (465) 
0.61

>  <document_year>  (465) 
2012

>  <target_pref_name>  (465) 
Carbonic anhydrase II

>  <assay_chembl_id>  (465) 
CHEMBL2173731

>  <standard_relation>  (465) 
=

>  <assay_description>  (465) 
Inhibition of human Carbonic anhydrase 2-mediated CO2 hydration by stopped-flow method

>  <published_relation>  (465) 
=

>  <standard_value>  (465) 
610

>  <qudt_units>  (465) 
http://www.openphacts.org/units/Nanomolar

>  <target_tax_id>  (465) 
9606

>  <bao_label>  (465) 
single protein format

>  <published_units>  (465) 
uM

>  <pchembl_value>  (465) 
6.22

>  <published_type>  (465) 
IC50

>  <activity_comment>  (465) 
None

$$$$

     RDKit          

 30 31  0  0  0  0  0  0  0  0999 V2000
    0.0000    0.0000    0.0000 O   0  0  0  0  0  0  0  0  0  0  0  0
    0.0000    0.0000    0.0000 P   0  0  0  0  0  0  0  0  0  0  0  0
    0.0000    0.0000    0.0000 O   0  0  0  0  0  0  0  0  0  0  0  0
    0.0000    0.0000    0.0000 O   0  0  0  0  0  0  0  0  0  0  0  0
    0.0000    0.0000    0.0000 C   0  0  0  0  0  0  0  0  0  0  0  0
    0.0000    0.0000    0.0000 O   0  0  0  0  0  0  0  0  0  0  0  0
    0.0000    0.0000    0.0000 N   0  0  0  0  0  0  0  0  0  0  0  0
    0.0000    0.0000    0.0000 C   0  0  0  0  0  0  0  0  0  0  0  0
    0.0000    0.0000    0.0000 C   0  0  0  0  0  0  0  0  0  0  0  0
    0.0000    0.0000    0.0000 C   0  0  0  0  0  0  0  0  0  0  0  0
    0.0000    0.0000    0.0000 C   0  0  0  0  0  0  0  0  0  0  0  0
    0.0000    0.0000    0.0000 C   0  0  0  0  0  0  0  0  0  0  0  0
    0.0000    0.0000    0.0000 C   0  0  0  0  0  0  0  0  0  0  0  0
    0.0000    0.0000    0.0000 N   0  0  0  0  0  0  0  0  0  0  0  0
    0.0000    0.0000    0.0000 S   0  0  0  0  0  0  0  0  0  0  0  0
    0.0000    0.0000    0.0000 O   0  0  0  0  0  0  0  0  0  0  0  0
    0.0000    0.0000    0.0000 O   0  0  0  0  0  0  0  0  0  0  0  0
    0.0000    0.0000    0.0000 C   0  0  0  0  0  0  0  0  0  0  0  0
    0.0000    0.0000    0.0000 C   0  0  0  0  0  0  0  0  0  0  0  0
    0.0000    0.0000    0.0000 C   0  0  0  0  0  0  0  0  0  0  0  0
    0.0000    0.0000    0.0000 C   0  0  0  0  0  0  0  0  0  0  0  0
    0.0000    0.0000    0.0000 O   0  0  0  0  0  0  0  0  0  0  0  0
    0.0000    0.0000    0.0000 C   0  0  0  0  0  0  0  0  0  0  0  0
    0.0000    0.0000    0.0000 C   0  0  0  0  0  0  0  0  0  0  0  0
    0.0000    0.0000    0.0000 C   0  0  0  0  0  0  0  0  0  0  0  0
    0.0000    0.0000    0.0000 C   0  0  0  0  0  0  0  0  0  0  0  0
    0.0000    0.0000    0.0000 C   0  0  0  0  0  0  0  0  0  0  0  0
    0.0000    0.0000    0.0000 C   0  0  0  0  0  0  0  0  0  0  0  0
    0.0000    0.0000    0.0000 C   0  0  0  0  0  0  0  0  0  0  0  0
    0.0000    0.0000    0.0000 C   0  0  0  0  0  0  0  0  0  0  0  0
  1  2  1  0
  2  3  2  0
  2  4  1  0
  2  5  1  0
  5  6  2  0
  5  7  1  0
  7  8  1  0
  8  9  1  0
  9 10  1  0
 10 11  1  0
 11 12  1  0
 12 13  1  0
 13 14  1  0
 14 15  1  0
 15 16  2  0
 15 17  2  0
 15 18  1  0
 18 19  2  0
 19 20  1  0
 20 21  2  0
 21 22  1  0
 22 23  1  0
 23 24  2  0
 24 25  1  0
 25 26  2  0
 26 27  1  0
 27 28  2  0
 21 29  1  0
 29 30  2  0
 30 18  1  0
 28 23  1  0
M  END
>  <pIC50>  (466) 
7.0

>  <ChEMBL_ID>  (466) 
CHEMBL2172744

>  <document_journal>  (466) 
J. Med. Chem.

>  <bao_endpoint>  (466) 
BAO_0000190

>  <potential_duplicate>  (466) 
False

>  <uo_units>  (466) 
UO_0000065

>  <canonical_smiles>  (466) 
OP(=O)(O)C(=O)NCCCCCCNS(=O)(=O)c1ccc(Oc2ccccc2)cc1

>  <parent_molecule_chembl_id>  (466) 
CHEMBL2172744

>  <assay_type>  (466) 
B

>  <src_id>  (466) 
1

>  <ligand_efficiency>  (466) 
{u'le': u'0.32', u'bei': u'15.34', u'sei': u'4.37', u'lle': u'4.13'}

>  <standard_flag>  (466) 
True

>  <molecule_chembl_id>  (466) 
CHEMBL2172744

>  <target_organism>  (466) 
Homo sapiens

>  <standard_units>  (466) 
nM

>  <record_id>  (466) 
1743009

>  <document_chembl_id>  (466) 
CHEMBL2169810

>  <bao_format>  (466) 
BAO_0000357

>  <data_validity_description>  (466) 
None

>  <activity_id>  (466) 
12112730

>  <standard_type>  (466) 
IC50

>  <target_chembl_id>  (466) 
CHEMBL205

>  <data_validity_comment>  (466) 
None

>  <published_value>  (466) 
0.1

>  <document_year>  (466) 
2012

>  <target_pref_name>  (466) 
Carbonic anhydrase II

>  <assay_chembl_id>  (466) 
CHEMBL2173731

>  <standard_relation>  (466) 
=

>  <assay_description>  (466) 
Inhibition of human Carbonic anhydrase 2-mediated CO2 hydration by stopped-flow method

>  <published_relation>  (466) 
=

>  <standard_value>  (466) 
100

>  <qudt_units>  (466) 
http://www.openphacts.org/units/Nanomolar

>  <target_tax_id>  (466) 
9606

>  <bao_label>  (466) 
single protein format

>  <published_units>  (466) 
uM

>  <pchembl_value>  (466) 
7

>  <published_type>  (466) 
IC50

>  <activity_comment>  (466) 
None

$$$$

     RDKit          

 29 30  0  0  0  0  0  0  0  0999 V2000
    0.0000    0.0000    0.0000 O   0  0  0  0  0  0  0  0  0  0  0  0
    0.0000    0.0000    0.0000 P   0  0  0  0  0  0  0  0  0  0  0  0
    0.0000    0.0000    0.0000 O   0  0  0  0  0  0  0  0  0  0  0  0
    0.0000    0.0000    0.0000 O   0  0  0  0  0  0  0  0  0  0  0  0
    0.0000    0.0000    0.0000 C   0  0  0  0  0  0  0  0  0  0  0  0
    0.0000    0.0000    0.0000 O   0  0  0  0  0  0  0  0  0  0  0  0
    0.0000    0.0000    0.0000 N   0  0  0  0  0  0  0  0  0  0  0  0
    0.0000    0.0000    0.0000 C   0  0  0  0  0  0  0  0  0  0  0  0
    0.0000    0.0000    0.0000 C   0  0  0  0  0  0  0  0  0  0  0  0
    0.0000    0.0000    0.0000 C   0  0  0  0  0  0  0  0  0  0  0  0
    0.0000    0.0000    0.0000 C   0  0  0  0  0  0  0  0  0  0  0  0
    0.0000    0.0000    0.0000 C   0  0  0  0  0  0  0  0  0  0  0  0
    0.0000    0.0000    0.0000 N   0  0  0  0  0  0  0  0  0  0  0  0
    0.0000    0.0000    0.0000 S   0  0  0  0  0  0  0  0  0  0  0  0
    0.0000    0.0000    0.0000 O   0  0  0  0  0  0  0  0  0  0  0  0
    0.0000    0.0000    0.0000 O   0  0  0  0  0  0  0  0  0  0  0  0
    0.0000    0.0000    0.0000 C   0  0  0  0  0  0  0  0  0  0  0  0
    0.0000    0.0000    0.0000 C   0  0  0  0  0  0  0  0  0  0  0  0
    0.0000    0.0000    0.0000 C   0  0  0  0  0  0  0  0  0  0  0  0
    0.0000    0.0000    0.0000 C   0  0  0  0  0  0  0  0  0  0  0  0
    0.0000    0.0000    0.0000 O   0  0  0  0  0  0  0  0  0  0  0  0
    0.0000    0.0000    0.0000 C   0  0  0  0  0  0  0  0  0  0  0  0
    0.0000    0.0000    0.0000 C   0  0  0  0  0  0  0  0  0  0  0  0
    0.0000    0.0000    0.0000 C   0  0  0  0  0  0  0  0  0  0  0  0
    0.0000    0.0000    0.0000 C   0  0  0  0  0  0  0  0  0  0  0  0
    0.0000    0.0000    0.0000 C   0  0  0  0  0  0  0  0  0  0  0  0
    0.0000    0.0000    0.0000 C   0  0  0  0  0  0  0  0  0  0  0  0
    0.0000    0.0000    0.0000 C   0  0  0  0  0  0  0  0  0  0  0  0
    0.0000    0.0000    0.0000 C   0  0  0  0  0  0  0  0  0  0  0  0
  1  2  1  0
  2  3  2  0
  2  4  1  0
  2  5  1  0
  5  6  2  0
  5  7  1  0
  7  8  1  0
  8  9  1  0
  9 10  1  0
 10 11  1  0
 11 12  1  0
 12 13  1  0
 13 14  1  0
 14 15  2  0
 14 16  2  0
 14 17  1  0
 17 18  2  0
 18 19  1  0
 19 20  2  0
 20 21  1  0
 21 22  1  0
 22 23  2  0
 23 24  1  0
 24 25  2  0
 25 26  1  0
 26 27  2  0
 20 28  1  0
 28 29  2  0
 29 17  1  0
 27 22  1  0
M  END
>  <pIC50>  (467) 
6.51

>  <ChEMBL_ID>  (467) 
CHEMBL2170080

>  <document_journal>  (467) 
J. Med. Chem.

>  <bao_endpoint>  (467) 
BAO_0000190

>  <potential_duplicate>  (467) 
False

>  <uo_units>  (467) 
UO_0000065

>  <canonical_smiles>  (467) 
OP(=O)(O)C(=O)NCCCCCNS(=O)(=O)c1ccc(Oc2ccccc2)cc1

>  <parent_molecule_chembl_id>  (467) 
CHEMBL2170080

>  <assay_type>  (467) 
B

>  <src_id>  (467) 
1

>  <ligand_efficiency>  (467) 
{u'le': u'0.31', u'bei': u'14.71', u'sei': u'4.06', u'lle': u'4.09'}

>  <standard_flag>  (467) 
True

>  <molecule_chembl_id>  (467) 
CHEMBL2170080

>  <target_organism>  (467) 
Homo sapiens

>  <standard_units>  (467) 
nM

>  <record_id>  (467) 
1739583

>  <document_chembl_id>  (467) 
CHEMBL2169810

>  <bao_format>  (467) 
BAO_0000357

>  <data_validity_description>  (467) 
None

>  <activity_id>  (467) 
12112731

>  <standard_type>  (467) 
IC50

>  <target_chembl_id>  (467) 
CHEMBL205

>  <data_validity_comment>  (467) 
None

>  <published_value>  (467) 
0.31

>  <document_year>  (467) 
2012

>  <target_pref_name>  (467) 
Carbonic anhydrase II

>  <assay_chembl_id>  (467) 
CHEMBL2173731

>  <standard_relation>  (467) 
=

>  <assay_description>  (467) 
Inhibition of human Carbonic anhydrase 2-mediated CO2 hydration by stopped-flow method

>  <published_relation>  (467) 
=

>  <standard_value>  (467) 
310

>  <qudt_units>  (467) 
http://www.openphacts.org/units/Nanomolar

>  <target_tax_id>  (467) 
9606

>  <bao_label>  (467) 
single protein format

>  <published_units>  (467) 
uM

>  <pchembl_value>  (467) 
6.51

>  <published_type>  (467) 
IC50

>  <activity_comment>  (467) 
None

$$$$

     RDKit          

 28 29  0  0  0  0  0  0  0  0999 V2000
    0.0000    0.0000    0.0000 O   0  0  0  0  0  0  0  0  0  0  0  0
    0.0000    0.0000    0.0000 P   0  0  0  0  0  0  0  0  0  0  0  0
    0.0000    0.0000    0.0000 O   0  0  0  0  0  0  0  0  0  0  0  0
    0.0000    0.0000    0.0000 O   0  0  0  0  0  0  0  0  0  0  0  0
    0.0000    0.0000    0.0000 C   0  0  0  0  0  0  0  0  0  0  0  0
    0.0000    0.0000    0.0000 O   0  0  0  0  0  0  0  0  0  0  0  0
    0.0000    0.0000    0.0000 N   0  0  0  0  0  0  0  0  0  0  0  0
    0.0000    0.0000    0.0000 C   0  0  0  0  0  0  0  0  0  0  0  0
    0.0000    0.0000    0.0000 C   0  0  0  0  0  0  0  0  0  0  0  0
    0.0000    0.0000    0.0000 C   0  0  0  0  0  0  0  0  0  0  0  0
    0.0000    0.0000    0.0000 C   0  0  0  0  0  0  0  0  0  0  0  0
    0.0000    0.0000    0.0000 N   0  0  0  0  0  0  0  0  0  0  0  0
    0.0000    0.0000    0.0000 S   0  0  0  0  0  0  0  0  0  0  0  0
    0.0000    0.0000    0.0000 O   0  0  0  0  0  0  0  0  0  0  0  0
    0.0000    0.0000    0.0000 O   0  0  0  0  0  0  0  0  0  0  0  0
    0.0000    0.0000    0.0000 C   0  0  0  0  0  0  0  0  0  0  0  0
    0.0000    0.0000    0.0000 C   0  0  0  0  0  0  0  0  0  0  0  0
    0.0000    0.0000    0.0000 C   0  0  0  0  0  0  0  0  0  0  0  0
    0.0000    0.0000    0.0000 C   0  0  0  0  0  0  0  0  0  0  0  0
    0.0000    0.0000    0.0000 O   0  0  0  0  0  0  0  0  0  0  0  0
    0.0000    0.0000    0.0000 C   0  0  0  0  0  0  0  0  0  0  0  0
    0.0000    0.0000    0.0000 C   0  0  0  0  0  0  0  0  0  0  0  0
    0.0000    0.0000    0.0000 C   0  0  0  0  0  0  0  0  0  0  0  0
    0.0000    0.0000    0.0000 C   0  0  0  0  0  0  0  0  0  0  0  0
    0.0000    0.0000    0.0000 C   0  0  0  0  0  0  0  0  0  0  0  0
    0.0000    0.0000    0.0000 C   0  0  0  0  0  0  0  0  0  0  0  0
    0.0000    0.0000    0.0000 C   0  0  0  0  0  0  0  0  0  0  0  0
    0.0000    0.0000    0.0000 C   0  0  0  0  0  0  0  0  0  0  0  0
  1  2  1  0
  2  3  2  0
  2  4  1  0
  2  5  1  0
  5  6  2  0
  5  7  1  0
  7  8  1  0
  8  9  1  0
  9 10  1  0
 10 11  1  0
 11 12  1  0
 12 13  1  0
 13 14  2  0
 13 15  2  0
 13 16  1  0
 16 17  2  0
 17 18  1  0
 18 19  2  0
 19 20  1  0
 20 21  1  0
 21 22  2  0
 22 23  1  0
 23 24  2  0
 24 25  1  0
 25 26  2  0
 19 27  1  0
 27 28  2  0
 28 16  1  0
 26 21  1  0
M  END
>  <pIC50>  (468) 
7.0

>  <ChEMBL_ID>  (468) 
CHEMBL2170079

>  <document_journal>  (468) 
J. Med. Chem.

>  <bao_endpoint>  (468) 
BAO_0000190

>  <potential_duplicate>  (468) 
False

>  <uo_units>  (468) 
UO_0000065

>  <canonical_smiles>  (468) 
OP(=O)(O)C(=O)NCCCCNS(=O)(=O)c1ccc(Oc2ccccc2)cc1

>  <parent_molecule_chembl_id>  (468) 
CHEMBL2170079

>  <assay_type>  (468) 
B

>  <src_id>  (468) 
1

>  <ligand_efficiency>  (468) 
{u'le': u'0.34', u'bei': u'16.34', u'sei': u'4.37', u'lle': u'5.04'}

>  <standard_flag>  (468) 
True

>  <molecule_chembl_id>  (468) 
CHEMBL2170079

>  <target_organism>  (468) 
Homo sapiens

>  <standard_units>  (468) 
nM

>  <record_id>  (468) 
1739582

>  <document_chembl_id>  (468) 
CHEMBL2169810

>  <bao_format>  (468) 
BAO_0000357

>  <data_validity_description>  (468) 
None

>  <activity_id>  (468) 
12112732

>  <standard_type>  (468) 
IC50

>  <target_chembl_id>  (468) 
CHEMBL205

>  <data_validity_comment>  (468) 
None

>  <published_value>  (468) 
0.1

>  <document_year>  (468) 
2012

>  <target_pref_name>  (468) 
Carbonic anhydrase II

>  <assay_chembl_id>  (468) 
CHEMBL2173731

>  <standard_relation>  (468) 
=

>  <assay_description>  (468) 
Inhibition of human Carbonic anhydrase 2-mediated CO2 hydration by stopped-flow method

>  <published_relation>  (468) 
=

>  <standard_value>  (468) 
100

>  <qudt_units>  (468) 
http://www.openphacts.org/units/Nanomolar

>  <target_tax_id>  (468) 
9606

>  <bao_label>  (468) 
single protein format

>  <published_units>  (468) 
uM

>  <pchembl_value>  (468) 
7

>  <published_type>  (468) 
IC50

>  <activity_comment>  (468) 
None

$$$$

     RDKit          

 27 28  0  0  0  0  0  0  0  0999 V2000
    0.0000    0.0000    0.0000 O   0  0  0  0  0  0  0  0  0  0  0  0
    0.0000    0.0000    0.0000 P   0  0  0  0  0  0  0  0  0  0  0  0
    0.0000    0.0000    0.0000 O   0  0  0  0  0  0  0  0  0  0  0  0
    0.0000    0.0000    0.0000 O   0  0  0  0  0  0  0  0  0  0  0  0
    0.0000    0.0000    0.0000 C   0  0  0  0  0  0  0  0  0  0  0  0
    0.0000    0.0000    0.0000 O   0  0  0  0  0  0  0  0  0  0  0  0
    0.0000    0.0000    0.0000 N   0  0  0  0  0  0  0  0  0  0  0  0
    0.0000    0.0000    0.0000 C   0  0  0  0  0  0  0  0  0  0  0  0
    0.0000    0.0000    0.0000 C   0  0  0  0  0  0  0  0  0  0  0  0
    0.0000    0.0000    0.0000 C   0  0  0  0  0  0  0  0  0  0  0  0
    0.0000    0.0000    0.0000 N   0  0  0  0  0  0  0  0  0  0  0  0
    0.0000    0.0000    0.0000 S   0  0  0  0  0  0  0  0  0  0  0  0
    0.0000    0.0000    0.0000 O   0  0  0  0  0  0  0  0  0  0  0  0
    0.0000    0.0000    0.0000 O   0  0  0  0  0  0  0  0  0  0  0  0
    0.0000    0.0000    0.0000 C   0  0  0  0  0  0  0  0  0  0  0  0
    0.0000    0.0000    0.0000 C   0  0  0  0  0  0  0  0  0  0  0  0
    0.0000    0.0000    0.0000 C   0  0  0  0  0  0  0  0  0  0  0  0
    0.0000    0.0000    0.0000 C   0  0  0  0  0  0  0  0  0  0  0  0
    0.0000    0.0000    0.0000 O   0  0  0  0  0  0  0  0  0  0  0  0
    0.0000    0.0000    0.0000 C   0  0  0  0  0  0  0  0  0  0  0  0
    0.0000    0.0000    0.0000 C   0  0  0  0  0  0  0  0  0  0  0  0
    0.0000    0.0000    0.0000 C   0  0  0  0  0  0  0  0  0  0  0  0
    0.0000    0.0000    0.0000 C   0  0  0  0  0  0  0  0  0  0  0  0
    0.0000    0.0000    0.0000 C   0  0  0  0  0  0  0  0  0  0  0  0
    0.0000    0.0000    0.0000 C   0  0  0  0  0  0  0  0  0  0  0  0
    0.0000    0.0000    0.0000 C   0  0  0  0  0  0  0  0  0  0  0  0
    0.0000    0.0000    0.0000 C   0  0  0  0  0  0  0  0  0  0  0  0
  1  2  1  0
  2  3  2  0
  2  4  1  0
  2  5  1  0
  5  6  2  0
  5  7  1  0
  7  8  1  0
  8  9  1  0
  9 10  1  0
 10 11  1  0
 11 12  1  0
 12 13  2  0
 12 14  2  0
 12 15  1  0
 15 16  2  0
 16 17  1  0
 17 18  2  0
 18 19  1  0
 19 20  1  0
 20 21  2  0
 21 22  1  0
 22 23  2  0
 23 24  1  0
 24 25  2  0
 18 26  1  0
 26 27  2  0
 27 15  1  0
 25 20  1  0
M  END
>  <pIC50>  (469) 
6.24

>  <ChEMBL_ID>  (469) 
CHEMBL2170078

>  <document_journal>  (469) 
J. Med. Chem.

>  <bao_endpoint>  (469) 
BAO_0000190

>  <potential_duplicate>  (469) 
False

>  <uo_units>  (469) 
UO_0000065

>  <canonical_smiles>  (469) 
OP(=O)(O)C(=O)NCCCNS(=O)(=O)c1ccc(Oc2ccccc2)cc1

>  <parent_molecule_chembl_id>  (469) 
CHEMBL2170078

>  <assay_type>  (469) 
B

>  <src_id>  (469) 
1

>  <ligand_efficiency>  (469) 
{u'le': u'0.32', u'bei': u'15.05', u'sei': u'3.89', u'lle': u'4.86'}

>  <standard_flag>  (469) 
True

>  <molecule_chembl_id>  (469) 
CHEMBL2170078

>  <target_organism>  (469) 
Homo sapiens

>  <standard_units>  (469) 
nM

>  <record_id>  (469) 
1739581

>  <document_chembl_id>  (469) 
CHEMBL2169810

>  <bao_format>  (469) 
BAO_0000357

>  <data_validity_description>  (469) 
None

>  <activity_id>  (469) 
12112733

>  <standard_type>  (469) 
IC50

>  <target_chembl_id>  (469) 
CHEMBL205

>  <data_validity_comment>  (469) 
None

>  <published_value>  (469) 
0.58

>  <document_year>  (469) 
2012

>  <target_pref_name>  (469) 
Carbonic anhydrase II

>  <assay_chembl_id>  (469) 
CHEMBL2173731

>  <standard_relation>  (469) 
=

>  <assay_description>  (469) 
Inhibition of human Carbonic anhydrase 2-mediated CO2 hydration by stopped-flow method

>  <published_relation>  (469) 
=

>  <standard_value>  (469) 
580

>  <qudt_units>  (469) 
http://www.openphacts.org/units/Nanomolar

>  <target_tax_id>  (469) 
9606

>  <bao_label>  (469) 
single protein format

>  <published_units>  (469) 
uM

>  <pchembl_value>  (469) 
6.24

>  <published_type>  (469) 
IC50

>  <activity_comment>  (469) 
None

$$$$

     RDKit          

 26 27  0  0  0  0  0  0  0  0999 V2000
    0.0000    0.0000    0.0000 O   0  0  0  0  0  0  0  0  0  0  0  0
    0.0000    0.0000    0.0000 P   0  0  0  0  0  0  0  0  0  0  0  0
    0.0000    0.0000    0.0000 O   0  0  0  0  0  0  0  0  0  0  0  0
    0.0000    0.0000    0.0000 O   0  0  0  0  0  0  0  0  0  0  0  0
    0.0000    0.0000    0.0000 C   0  0  0  0  0  0  0  0  0  0  0  0
    0.0000    0.0000    0.0000 O   0  0  0  0  0  0  0  0  0  0  0  0
    0.0000    0.0000    0.0000 N   0  0  0  0  0  0  0  0  0  0  0  0
    0.0000    0.0000    0.0000 C   0  0  0  0  0  0  0  0  0  0  0  0
    0.0000    0.0000    0.0000 C   0  0  0  0  0  0  0  0  0  0  0  0
    0.0000    0.0000    0.0000 N   0  0  0  0  0  0  0  0  0  0  0  0
    0.0000    0.0000    0.0000 S   0  0  0  0  0  0  0  0  0  0  0  0
    0.0000    0.0000    0.0000 O   0  0  0  0  0  0  0  0  0  0  0  0
    0.0000    0.0000    0.0000 O   0  0  0  0  0  0  0  0  0  0  0  0
    0.0000    0.0000    0.0000 C   0  0  0  0  0  0  0  0  0  0  0  0
    0.0000    0.0000    0.0000 C   0  0  0  0  0  0  0  0  0  0  0  0
    0.0000    0.0000    0.0000 C   0  0  0  0  0  0  0  0  0  0  0  0
    0.0000    0.0000    0.0000 C   0  0  0  0  0  0  0  0  0  0  0  0
    0.0000    0.0000    0.0000 O   0  0  0  0  0  0  0  0  0  0  0  0
    0.0000    0.0000    0.0000 C   0  0  0  0  0  0  0  0  0  0  0  0
    0.0000    0.0000    0.0000 C   0  0  0  0  0  0  0  0  0  0  0  0
    0.0000    0.0000    0.0000 C   0  0  0  0  0  0  0  0  0  0  0  0
    0.0000    0.0000    0.0000 C   0  0  0  0  0  0  0  0  0  0  0  0
    0.0000    0.0000    0.0000 C   0  0  0  0  0  0  0  0  0  0  0  0
    0.0000    0.0000    0.0000 C   0  0  0  0  0  0  0  0  0  0  0  0
    0.0000    0.0000    0.0000 C   0  0  0  0  0  0  0  0  0  0  0  0
    0.0000    0.0000    0.0000 C   0  0  0  0  0  0  0  0  0  0  0  0
  1  2  1  0
  2  3  2  0
  2  4  1  0
  2  5  1  0
  5  6  2  0
  5  7  1  0
  7  8  1  0
  8  9  1  0
  9 10  1  0
 10 11  1  0
 11 12  2  0
 11 13  2  0
 11 14  1  0
 14 15  2  0
 15 16  1  0
 16 17  2  0
 17 18  1  0
 18 19  1  0
 19 20  2  0
 20 21  1  0
 21 22  2  0
 22 23  1  0
 23 24  2  0
 17 25  1  0
 25 26  2  0
 26 14  1  0
 24 19  1  0
M  END
>  <pIC50>  (470) 
6.09

>  <ChEMBL_ID>  (470) 
CHEMBL2170077

>  <document_journal>  (470) 
J. Med. Chem.

>  <bao_endpoint>  (470) 
BAO_0000190

>  <potential_duplicate>  (470) 
False

>  <uo_units>  (470) 
UO_0000065

>  <canonical_smiles>  (470) 
OP(=O)(O)C(=O)NCCNS(=O)(=O)c1ccc(Oc2ccccc2)cc1

>  <parent_molecule_chembl_id>  (470) 
CHEMBL2170077

>  <assay_type>  (470) 
B

>  <src_id>  (470) 
1

>  <ligand_efficiency>  (470) 
{u'le': u'0.32', u'bei': u'15.2', u'sei': u'3.8', u'lle': u'4.77'}

>  <standard_flag>  (470) 
True

>  <molecule_chembl_id>  (470) 
CHEMBL2170077

>  <target_organism>  (470) 
Homo sapiens

>  <standard_units>  (470) 
nM

>  <record_id>  (470) 
1739580

>  <document_chembl_id>  (470) 
CHEMBL2169810

>  <bao_format>  (470) 
BAO_0000357

>  <data_validity_description>  (470) 
None

>  <activity_id>  (470) 
12112734

>  <standard_type>  (470) 
IC50

>  <target_chembl_id>  (470) 
CHEMBL205

>  <data_validity_comment>  (470) 
None

>  <published_value>  (470) 
0.82

>  <document_year>  (470) 
2012

>  <target_pref_name>  (470) 
Carbonic anhydrase II

>  <assay_chembl_id>  (470) 
CHEMBL2173731

>  <standard_relation>  (470) 
=

>  <assay_description>  (470) 
Inhibition of human Carbonic anhydrase 2-mediated CO2 hydration by stopped-flow method

>  <published_relation>  (470) 
=

>  <standard_value>  (470) 
820

>  <qudt_units>  (470) 
http://www.openphacts.org/units/Nanomolar

>  <target_tax_id>  (470) 
9606

>  <bao_label>  (470) 
single protein format

>  <published_units>  (470) 
uM

>  <pchembl_value>  (470) 
6.09

>  <published_type>  (470) 
IC50

>  <activity_comment>  (470) 
None

$$$$

     RDKit          

 14 14  0  0  0  0  0  0  0  0999 V2000
    0.0000    0.0000    0.0000 N   0  0  0  0  0  0  0  0  0  0  0  0
    0.0000    0.0000    0.0000 C   0  0  0  0  0  0  0  0  0  0  0  0
    0.0000    0.0000    0.0000 C   0  0  0  0  0  0  0  0  0  0  0  0
    0.0000    0.0000    0.0000 C   0  0  0  0  0  0  0  0  0  0  0  0
    0.0000    0.0000    0.0000 C   0  0  0  0  0  0  0  0  0  0  0  0
    0.0000    0.0000    0.0000 C   0  0  0  0  0  0  0  0  0  0  0  0
    0.0000    0.0000    0.0000 C   0  0  0  0  0  0  0  0  0  0  0  0
    0.0000    0.0000    0.0000 N   0  0  0  0  0  0  0  0  0  0  0  0
    0.0000    0.0000    0.0000 C   0  0  0  0  0  0  0  0  0  0  0  0
    0.0000    0.0000    0.0000 O   0  0  0  0  0  0  0  0  0  0  0  0
    0.0000    0.0000    0.0000 P   0  0  0  0  0  0  0  0  0  0  0  0
    0.0000    0.0000    0.0000 O   0  0  0  0  0  0  0  0  0  0  0  0
    0.0000    0.0000    0.0000 O   0  0  0  0  0  0  0  0  0  0  0  0
    0.0000    0.0000    0.0000 O   0  0  0  0  0  0  0  0  0  0  0  0
  1  2  1  0
  2  3  1  0
  3  4  1  0
  4  5  1  0
  5  6  1  0
  6  7  1  0
  7  8  1  0
  8  9  1  0
  9 10  2  0
  9 11  1  0
 11 12  2  0
 11 13  1  0
 11 14  1  0
  7  2  1  0
M  END
>  <pIC50>  (471) 
5.88

>  <ChEMBL_ID>  (471) 
CHEMBL2172751

>  <document_journal>  (471) 
J. Med. Chem.

>  <bao_endpoint>  (471) 
BAO_0000190

>  <potential_duplicate>  (471) 
False

>  <uo_units>  (471) 
UO_0000065

>  <canonical_smiles>  (471) 
N[C@@H]1CCCC[C@@H]1NC(=O)P(=O)(O)O

>  <parent_molecule_chembl_id>  (471) 
CHEMBL2172751

>  <assay_type>  (471) 
B

>  <src_id>  (471) 
1

>  <ligand_efficiency>  (471) 
{u'le': u'0.57', u'bei': u'26.46', u'sei': u'4.8', u'lle': u'6.08'}

>  <standard_flag>  (471) 
True

>  <molecule_chembl_id>  (471) 
CHEMBL2172751

>  <target_organism>  (471) 
Homo sapiens

>  <standard_units>  (471) 
nM

>  <record_id>  (471) 
1743025

>  <document_chembl_id>  (471) 
CHEMBL2169810

>  <bao_format>  (471) 
BAO_0000357

>  <data_validity_description>  (471) 
None

>  <activity_id>  (471) 
12112735

>  <standard_type>  (471) 
IC50

>  <target_chembl_id>  (471) 
CHEMBL205

>  <data_validity_comment>  (471) 
None

>  <published_value>  (471) 
1.32

>  <document_year>  (471) 
2012

>  <target_pref_name>  (471) 
Carbonic anhydrase II

>  <assay_chembl_id>  (471) 
CHEMBL2173731

>  <standard_relation>  (471) 
=

>  <assay_description>  (471) 
Inhibition of human Carbonic anhydrase 2-mediated CO2 hydration by stopped-flow method

>  <published_relation>  (471) 
=

>  <standard_value>  (471) 
1320

>  <qudt_units>  (471) 
http://www.openphacts.org/units/Nanomolar

>  <target_tax_id>  (471) 
9606

>  <bao_label>  (471) 
single protein format

>  <published_units>  (471) 
uM

>  <pchembl_value>  (471) 
5.88

>  <published_type>  (471) 
IC50

>  <activity_comment>  (471) 
None

$$$$

     RDKit          

 14 14  0  0  0  0  0  0  0  0999 V2000
    0.0000    0.0000    0.0000 N   0  0  0  0  0  0  0  0  0  0  0  0
    0.0000    0.0000    0.0000 C   0  0  0  0  0  0  0  0  0  0  0  0
    0.0000    0.0000    0.0000 C   0  0  0  0  0  0  0  0  0  0  0  0
    0.0000    0.0000    0.0000 C   0  0  0  0  0  0  0  0  0  0  0  0
    0.0000    0.0000    0.0000 C   0  0  0  0  0  0  0  0  0  0  0  0
    0.0000    0.0000    0.0000 C   0  0  0  0  0  0  0  0  0  0  0  0
    0.0000    0.0000    0.0000 C   0  0  0  0  0  0  0  0  0  0  0  0
    0.0000    0.0000    0.0000 N   0  0  0  0  0  0  0  0  0  0  0  0
    0.0000    0.0000    0.0000 C   0  0  0  0  0  0  0  0  0  0  0  0
    0.0000    0.0000    0.0000 O   0  0  0  0  0  0  0  0  0  0  0  0
    0.0000    0.0000    0.0000 P   0  0  0  0  0  0  0  0  0  0  0  0
    0.0000    0.0000    0.0000 O   0  0  0  0  0  0  0  0  0  0  0  0
    0.0000    0.0000    0.0000 O   0  0  0  0  0  0  0  0  0  0  0  0
    0.0000    0.0000    0.0000 O   0  0  0  0  0  0  0  0  0  0  0  0
  1  2  1  0
  2  3  1  0
  3  4  1  0
  4  5  1  0
  5  6  1  0
  6  7  1  0
  7  8  1  0
  8  9  1  0
  9 10  2  0
  9 11  1  0
 11 12  2  0
 11 13  1  0
 11 14  1  0
  7  2  1  0
M  END
>  <pIC50>  (472) 
5.08

>  <ChEMBL_ID>  (472) 
CHEMBL2172750

>  <document_journal>  (472) 
J. Med. Chem.

>  <bao_endpoint>  (472) 
BAO_0000190

>  <potential_duplicate>  (472) 
False

>  <uo_units>  (472) 
UO_0000065

>  <canonical_smiles>  (472) 
N[C@H]1CCCC[C@@H]1NC(=O)P(=O)(O)O

>  <parent_molecule_chembl_id>  (472) 
CHEMBL2172750

>  <assay_type>  (472) 
B

>  <src_id>  (472) 
1

>  <ligand_efficiency>  (472) 
{u'le': u'0.5', u'bei': u'22.87', u'sei': u'4.15', u'lle': u'5.28'}

>  <standard_flag>  (472) 
True

>  <molecule_chembl_id>  (472) 
CHEMBL2172750

>  <target_organism>  (472) 
Homo sapiens

>  <standard_units>  (472) 
nM

>  <record_id>  (472) 
1743024

>  <document_chembl_id>  (472) 
CHEMBL2169810

>  <bao_format>  (472) 
BAO_0000357

>  <data_validity_description>  (472) 
None

>  <activity_id>  (472) 
12112736

>  <standard_type>  (472) 
IC50

>  <target_chembl_id>  (472) 
CHEMBL205

>  <data_validity_comment>  (472) 
None

>  <published_value>  (472) 
8.28

>  <document_year>  (472) 
2012

>  <target_pref_name>  (472) 
Carbonic anhydrase II

>  <assay_chembl_id>  (472) 
CHEMBL2173731

>  <standard_relation>  (472) 
=

>  <assay_description>  (472) 
Inhibition of human Carbonic anhydrase 2-mediated CO2 hydration by stopped-flow method

>  <published_relation>  (472) 
=

>  <standard_value>  (472) 
8280

>  <qudt_units>  (472) 
http://www.openphacts.org/units/Nanomolar

>  <target_tax_id>  (472) 
9606

>  <bao_label>  (472) 
single protein format

>  <published_units>  (472) 
uM

>  <pchembl_value>  (472) 
5.08

>  <published_type>  (472) 
IC50

>  <activity_comment>  (472) 
None

$$$$

     RDKit          

 14 14  0  0  0  0  0  0  0  0999 V2000
    0.0000    0.0000    0.0000 O   0  0  0  0  0  0  0  0  0  0  0  0
    0.0000    0.0000    0.0000 P   0  0  0  0  0  0  0  0  0  0  0  0
    0.0000    0.0000    0.0000 O   0  0  0  0  0  0  0  0  0  0  0  0
    0.0000    0.0000    0.0000 O   0  0  0  0  0  0  0  0  0  0  0  0
    0.0000    0.0000    0.0000 C   0  0  0  0  0  0  0  0  0  0  0  0
    0.0000    0.0000    0.0000 O   0  0  0  0  0  0  0  0  0  0  0  0
    0.0000    0.0000    0.0000 N   0  0  0  0  0  0  0  0  0  0  0  0
    0.0000    0.0000    0.0000 C   0  0  0  0  0  0  0  0  0  0  0  0
    0.0000    0.0000    0.0000 C   0  0  0  0  0  0  0  0  0  0  0  0
    0.0000    0.0000    0.0000 N   0  0  0  0  0  0  0  0  0  0  0  0
    0.0000    0.0000    0.0000 C   0  0  0  0  0  0  0  0  0  0  0  0
    0.0000    0.0000    0.0000 C   0  0  0  0  0  0  0  0  0  0  0  0
    0.0000    0.0000    0.0000 C   0  0  0  0  0  0  0  0  0  0  0  0
    0.0000    0.0000    0.0000 C   0  0  0  0  0  0  0  0  0  0  0  0
  1  2  1  0
  2  3  2  0
  2  4  1  0
  2  5  1  0
  5  6  2  0
  5  7  1  0
  7  8  1  0
  8  9  1  0
  9 10  1  0
 10 11  1  0
 11 12  1  0
 12 13  1  0
 13 14  1  0
 14 10  1  0
M  END
>  <pIC50>  (473) 
5.02

>  <ChEMBL_ID>  (473) 
CHEMBL1801472

>  <document_journal>  (473) 
J. Med. Chem.

>  <bao_endpoint>  (473) 
BAO_0000190

>  <potential_duplicate>  (473) 
False

>  <uo_units>  (473) 
UO_0000065

>  <canonical_smiles>  (473) 
OP(=O)(O)C(=O)NCCN1CCCC1

>  <parent_molecule_chembl_id>  (473) 
CHEMBL1801472

>  <assay_type>  (473) 
B

>  <src_id>  (473) 
1

>  <ligand_efficiency>  (473) 
{u'le': u'0.49', u'bei': u'22.57', u'sei': u'5.03', u'lle': u'5.22'}

>  <standard_flag>  (473) 
True

>  <molecule_chembl_id>  (473) 
CHEMBL1801472

>  <target_organism>  (473) 
Homo sapiens

>  <standard_units>  (473) 
nM

>  <record_id>  (473) 
1743023

>  <document_chembl_id>  (473) 
CHEMBL2169810

>  <bao_format>  (473) 
BAO_0000357

>  <data_validity_description>  (473) 
None

>  <activity_id>  (473) 
12112737

>  <standard_type>  (473) 
IC50

>  <target_chembl_id>  (473) 
CHEMBL205

>  <data_validity_comment>  (473) 
None

>  <published_value>  (473) 
9.66

>  <document_year>  (473) 
2012

>  <target_pref_name>  (473) 
Carbonic anhydrase II

>  <assay_chembl_id>  (473) 
CHEMBL2173731

>  <standard_relation>  (473) 
=

>  <assay_description>  (473) 
Inhibition of human Carbonic anhydrase 2-mediated CO2 hydration by stopped-flow method

>  <published_relation>  (473) 
=

>  <standard_value>  (473) 
9660

>  <qudt_units>  (473) 
http://www.openphacts.org/units/Nanomolar

>  <target_tax_id>  (473) 
9606

>  <bao_label>  (473) 
single protein format

>  <published_units>  (473) 
uM

>  <pchembl_value>  (473) 
5.02

>  <published_type>  (473) 
IC50

>  <activity_comment>  (473) 
None

$$$$

     RDKit          

 15 15  0  0  0  0  0  0  0  0999 V2000
    0.0000    0.0000    0.0000 O   0  0  0  0  0  0  0  0  0  0  0  0
    0.0000    0.0000    0.0000 P   0  0  0  0  0  0  0  0  0  0  0  0
    0.0000    0.0000    0.0000 O   0  0  0  0  0  0  0  0  0  0  0  0
    0.0000    0.0000    0.0000 O   0  0  0  0  0  0  0  0  0  0  0  0
    0.0000    0.0000    0.0000 C   0  0  0  0  0  0  0  0  0  0  0  0
    0.0000    0.0000    0.0000 O   0  0  0  0  0  0  0  0  0  0  0  0
    0.0000    0.0000    0.0000 N   0  0  0  0  0  0  0  0  0  0  0  0
    0.0000    0.0000    0.0000 C   0  0  0  0  0  0  0  0  0  0  0  0
    0.0000    0.0000    0.0000 C   0  0  0  0  0  0  0  0  0  0  0  0
    0.0000    0.0000    0.0000 N   0  0  0  0  0  0  0  0  0  0  0  0
    0.0000    0.0000    0.0000 C   0  0  0  0  0  0  0  0  0  0  0  0
    0.0000    0.0000    0.0000 C   0  0  0  0  0  0  0  0  0  0  0  0
    0.0000    0.0000    0.0000 C   0  0  0  0  0  0  0  0  0  0  0  0
    0.0000    0.0000    0.0000 C   0  0  0  0  0  0  0  0  0  0  0  0
    0.0000    0.0000    0.0000 C   0  0  0  0  0  0  0  0  0  0  0  0
  1  2  1  0
  2  3  2  0
  2  4  1  0
  2  5  1  0
  5  6  2  0
  5  7  1  0
  7  8  1  0
  8  9  1  0
  9 10  1  0
 10 11  1  0
 11 12  1  0
 12 13  1  0
 13 14  1  0
 14 15  1  0
 15 10  1  0
M  END
>  <pIC50>  (474) 
5.07

>  <ChEMBL_ID>  (474) 
CHEMBL1801471

>  <document_journal>  (474) 
J. Med. Chem.

>  <bao_endpoint>  (474) 
BAO_0000190

>  <potential_duplicate>  (474) 
False

>  <uo_units>  (474) 
UO_0000065

>  <canonical_smiles>  (474) 
OP(=O)(O)C(=O)NCCN1CCCCC1

>  <parent_molecule_chembl_id>  (474) 
CHEMBL1801471

>  <assay_type>  (474) 
B

>  <src_id>  (474) 
1

>  <ligand_efficiency>  (474) 
{u'le': u'0.46', u'bei': u'21.44', u'sei': u'5.08', u'lle': u'4.82'}

>  <standard_flag>  (474) 
True

>  <molecule_chembl_id>  (474) 
CHEMBL1801471

>  <target_organism>  (474) 
Homo sapiens

>  <standard_units>  (474) 
nM

>  <record_id>  (474) 
1743022

>  <document_chembl_id>  (474) 
CHEMBL2169810

>  <bao_format>  (474) 
BAO_0000357

>  <data_validity_description>  (474) 
None

>  <activity_id>  (474) 
12112738

>  <standard_type>  (474) 
IC50

>  <target_chembl_id>  (474) 
CHEMBL205

>  <data_validity_comment>  (474) 
None

>  <published_value>  (474) 
8.6

>  <document_year>  (474) 
2012

>  <target_pref_name>  (474) 
Carbonic anhydrase II

>  <assay_chembl_id>  (474) 
CHEMBL2173731

>  <standard_relation>  (474) 
=

>  <assay_description>  (474) 
Inhibition of human Carbonic anhydrase 2-mediated CO2 hydration by stopped-flow method

>  <published_relation>  (474) 
=

>  <standard_value>  (474) 
8600

>  <qudt_units>  (474) 
http://www.openphacts.org/units/Nanomolar

>  <target_tax_id>  (474) 
9606

>  <bao_label>  (474) 
single protein format

>  <published_units>  (474) 
uM

>  <pchembl_value>  (474) 
5.07

>  <published_type>  (474) 
IC50

>  <activity_comment>  (474) 
None

$$$$

     RDKit          

 26 25  0  0  0  0  0  0  0  0999 V2000
    0.0000    0.0000    0.0000 C   0  0  0  0  0  0  0  0  0  0  0  0
    0.0000    0.0000    0.0000 C   0  0  0  0  0  0  0  0  0  0  0  0
    0.0000    0.0000    0.0000 O   0  0  0  0  0  0  0  0  0  0  0  0
    0.0000    0.0000    0.0000 P   0  0  0  0  0  0  0  0  0  0  0  0
    0.0000    0.0000    0.0000 O   0  0  0  0  0  0  0  0  0  0  0  0
    0.0000    0.0000    0.0000 O   0  0  0  0  0  0  0  0  0  0  0  0
    0.0000    0.0000    0.0000 C   0  0  0  0  0  0  0  0  0  0  0  0
    0.0000    0.0000    0.0000 C   0  0  0  0  0  0  0  0  0  0  0  0
    0.0000    0.0000    0.0000 C   0  0  0  0  0  0  0  0  0  0  0  0
    0.0000    0.0000    0.0000 O   0  0  0  0  0  0  0  0  0  0  0  0
    0.0000    0.0000    0.0000 N   0  0  0  0  0  0  0  0  0  0  0  0
    0.0000    0.0000    0.0000 C   0  0  0  0  0  0  0  0  0  0  0  0
    0.0000    0.0000    0.0000 C   0  0  0  0  0  0  0  0  0  0  0  0
    0.0000    0.0000    0.0000 C   0  0  0  0  0  0  0  0  0  0  0  0
    0.0000    0.0000    0.0000 C   0  0  0  0  0  0  0  0  0  0  0  0
    0.0000    0.0000    0.0000 N   0  0  0  0  0  0  0  0  0  0  0  0
    0.0000    0.0000    0.0000 C   0  0  0  0  0  0  0  0  0  0  0  0
    0.0000    0.0000    0.0000 O   0  0  0  0  0  0  0  0  0  0  0  0
    0.0000    0.0000    0.0000 P   0  0  0  0  0  0  0  0  0  0  0  0
    0.0000    0.0000    0.0000 O   0  0  0  0  0  0  0  0  0  0  0  0
    0.0000    0.0000    0.0000 O   0  0  0  0  0  0  0  0  0  0  0  0
    0.0000    0.0000    0.0000 C   0  0  0  0  0  0  0  0  0  0  0  0
    0.0000    0.0000    0.0000 C   0  0  0  0  0  0  0  0  0  0  0  0
    0.0000    0.0000    0.0000 O   0  0  0  0  0  0  0  0  0  0  0  0
    0.0000    0.0000    0.0000 C   0  0  0  0  0  0  0  0  0  0  0  0
    0.0000    0.0000    0.0000 C   0  0  0  0  0  0  0  0  0  0  0  0
  1  2  1  0
  2  3  1  0
  3  4  1  0
  4  5  2  0
  4  6  1  0
  6  7  1  0
  7  8  1  0
  4  9  1  0
  9 10  2  0
  9 11  1  0
 11 12  1  0
 12 13  1  0
 13 14  1  0
 14 15  1  0
 15 16  1  0
 16 17  1  0
 17 18  2  0
 17 19  1  0
 19 20  2  0
 19 21  1  0
 21 22  1  0
 22 23  1  0
 19 24  1  0
 24 25  1  0
 25 26  1  0
M  END
>  <pIC50>  (475) 
5.02

>  <ChEMBL_ID>  (475) 
CHEMBL2172749

>  <document_journal>  (475) 
J. Med. Chem.

>  <bao_endpoint>  (475) 
BAO_0000190

>  <potential_duplicate>  (475) 
False

>  <uo_units>  (475) 
UO_0000065

>  <canonical_smiles>  (475) 
CCOP(=O)(OCC)C(=O)NCCCCNC(=O)P(=O)(OCC)OCC

>  <parent_molecule_chembl_id>  (475) 
CHEMBL2172749

>  <assay_type>  (475) 
B

>  <src_id>  (475) 
1

>  <ligand_efficiency>  (475) 
{u'le': u'0.26', u'bei': u'12.05', u'sei': u'3.37', u'lle': u'4.61'}

>  <standard_flag>  (475) 
True

>  <molecule_chembl_id>  (475) 
CHEMBL2172749

>  <target_organism>  (475) 
Homo sapiens

>  <standard_units>  (475) 
nM

>  <record_id>  (475) 
1743021

>  <document_chembl_id>  (475) 
CHEMBL2169810

>  <bao_format>  (475) 
BAO_0000357

>  <data_validity_description>  (475) 
None

>  <activity_id>  (475) 
12112739

>  <standard_type>  (475) 
IC50

>  <target_chembl_id>  (475) 
CHEMBL205

>  <data_validity_comment>  (475) 
None

>  <published_value>  (475) 
9.59

>  <document_year>  (475) 
2012

>  <target_pref_name>  (475) 
Carbonic anhydrase II

>  <assay_chembl_id>  (475) 
CHEMBL2173731

>  <standard_relation>  (475) 
=

>  <assay_description>  (475) 
Inhibition of human Carbonic anhydrase 2-mediated CO2 hydration by stopped-flow method

>  <published_relation>  (475) 
=

>  <standard_value>  (475) 
9590

>  <qudt_units>  (475) 
http://www.openphacts.org/units/Nanomolar

>  <target_tax_id>  (475) 
9606

>  <bao_label>  (475) 
single protein format

>  <published_units>  (475) 
uM

>  <pchembl_value>  (475) 
5.02

>  <published_type>  (475) 
IC50

>  <activity_comment>  (475) 
None

$$$$

     RDKit          

 18 17  0  0  0  0  0  0  0  0999 V2000
    0.0000    0.0000    0.0000 O   0  0  0  0  0  0  0  0  0  0  0  0
    0.0000    0.0000    0.0000 P   0  0  0  0  0  0  0  0  0  0  0  0
    0.0000    0.0000    0.0000 O   0  0  0  0  0  0  0  0  0  0  0  0
    0.0000    0.0000    0.0000 O   0  0  0  0  0  0  0  0  0  0  0  0
    0.0000    0.0000    0.0000 C   0  0  0  0  0  0  0  0  0  0  0  0
    0.0000    0.0000    0.0000 O   0  0  0  0  0  0  0  0  0  0  0  0
    0.0000    0.0000    0.0000 N   0  0  0  0  0  0  0  0  0  0  0  0
    0.0000    0.0000    0.0000 C   0  0  0  0  0  0  0  0  0  0  0  0
    0.0000    0.0000    0.0000 C   0  0  0  0  0  0  0  0  0  0  0  0
    0.0000    0.0000    0.0000 C   0  0  0  0  0  0  0  0  0  0  0  0
    0.0000    0.0000    0.0000 C   0  0  0  0  0  0  0  0  0  0  0  0
    0.0000    0.0000    0.0000 N   0  0  0  0  0  0  0  0  0  0  0  0
    0.0000    0.0000    0.0000 C   0  0  0  0  0  0  0  0  0  0  0  0
    0.0000    0.0000    0.0000 O   0  0  0  0  0  0  0  0  0  0  0  0
    0.0000    0.0000    0.0000 P   0  0  0  0  0  0  0  0  0  0  0  0
    0.0000    0.0000    0.0000 O   0  0  0  0  0  0  0  0  0  0  0  0
    0.0000    0.0000    0.0000 O   0  0  0  0  0  0  0  0  0  0  0  0
    0.0000    0.0000    0.0000 O   0  0  0  0  0  0  0  0  0  0  0  0
  1  2  1  0
  2  3  2  0
  2  4  1  0
  2  5  1  0
  5  6  2  0
  5  7  1  0
  7  8  1  0
  8  9  1  0
  9 10  1  0
 10 11  1  0
 11 12  1  0
 12 13  1  0
 13 14  2  0
 13 15  1  0
 15 16  2  0
 15 17  1  0
 15 18  1  0
M  END
>  <pIC50>  (476) 
5.06

>  <ChEMBL_ID>  (476) 
CHEMBL2172748

>  <document_journal>  (476) 
J. Med. Chem.

>  <bao_endpoint>  (476) 
BAO_0000190

>  <potential_duplicate>  (476) 
False

>  <uo_units>  (476) 
UO_0000065

>  <canonical_smiles>  (476) 
OP(=O)(O)C(=O)NCCCCNC(=O)P(=O)(O)O

>  <parent_molecule_chembl_id>  (476) 
CHEMBL2172748

>  <assay_type>  (476) 
B

>  <src_id>  (476) 
1

>  <ligand_efficiency>  (476) 
{u'le': u'0.38', u'bei': u'16.62', u'sei': u'2.62', u'lle': u'6.2'}

>  <standard_flag>  (476) 
True

>  <molecule_chembl_id>  (476) 
CHEMBL2172748

>  <target_organism>  (476) 
Homo sapiens

>  <standard_units>  (476) 
nM

>  <record_id>  (476) 
1743020

>  <document_chembl_id>  (476) 
CHEMBL2169810

>  <bao_format>  (476) 
BAO_0000357

>  <data_validity_description>  (476) 
None

>  <activity_id>  (476) 
12112740

>  <standard_type>  (476) 
IC50

>  <target_chembl_id>  (476) 
CHEMBL205

>  <data_validity_comment>  (476) 
None

>  <published_value>  (476) 
8.82

>  <document_year>  (476) 
2012

>  <target_pref_name>  (476) 
Carbonic anhydrase II

>  <assay_chembl_id>  (476) 
CHEMBL2173731

>  <standard_relation>  (476) 
=

>  <assay_description>  (476) 
Inhibition of human Carbonic anhydrase 2-mediated CO2 hydration by stopped-flow method

>  <published_relation>  (476) 
=

>  <standard_value>  (476) 
8820

>  <qudt_units>  (476) 
http://www.openphacts.org/units/Nanomolar

>  <target_tax_id>  (476) 
9606

>  <bao_label>  (476) 
single protein format

>  <published_units>  (476) 
uM

>  <pchembl_value>  (476) 
5.06

>  <published_type>  (476) 
IC50

>  <activity_comment>  (476) 
None

$$$$

     RDKit          

 15 15  0  0  0  0  0  0  0  0999 V2000
    0.0000    0.0000    0.0000 C   0  0  0  0  0  0  0  0  0  0  0  0
    0.0000    0.0000    0.0000 C   0  0  0  0  0  0  0  0  0  0  0  0
    0.0000    0.0000    0.0000 N   0  0  0  0  0  0  0  0  0  0  0  0
    0.0000    0.0000    0.0000 C   0  0  0  0  0  0  0  0  0  0  0  0
    0.0000    0.0000    0.0000 O   0  0  0  0  0  0  0  0  0  0  0  0
    0.0000    0.0000    0.0000 P   0  0  0  0  0  0  0  0  0  0  0  0
    0.0000    0.0000    0.0000 O   0  0  0  0  0  0  0  0  0  0  0  0
    0.0000    0.0000    0.0000 O   0  0  0  0  0  0  0  0  0  0  0  0
    0.0000    0.0000    0.0000 O   0  0  0  0  0  0  0  0  0  0  0  0
    0.0000    0.0000    0.0000 C   0  0  0  0  0  0  0  0  0  0  0  0
    0.0000    0.0000    0.0000 C   0  0  0  0  0  0  0  0  0  0  0  0
    0.0000    0.0000    0.0000 C   0  0  0  0  0  0  0  0  0  0  0  0
    0.0000    0.0000    0.0000 C   0  0  0  0  0  0  0  0  0  0  0  0
    0.0000    0.0000    0.0000 C   0  0  0  0  0  0  0  0  0  0  0  0
    0.0000    0.0000    0.0000 C   0  0  0  0  0  0  0  0  0  0  0  0
  1  2  1  0
  2  3  1  0
  3  4  1  0
  4  5  2  0
  4  6  1  0
  6  7  2  0
  6  8  1  0
  6  9  1  0
  2 10  1  0
 10 11  1  0
 11 12  1  0
 12 13  1  0
 13 14  1  0
 14 15  1  0
 15 10  1  0
M  END
>  <pIC50>  (477) 
5.05

>  <ChEMBL_ID>  (477) 
CHEMBL2172747

>  <document_journal>  (477) 
J. Med. Chem.

>  <bao_endpoint>  (477) 
BAO_0000190

>  <potential_duplicate>  (477) 
False

>  <uo_units>  (477) 
UO_0000065

>  <canonical_smiles>  (477) 
C[C@@H](NC(=O)P(=O)(O)O)C1CCCCC1

>  <parent_molecule_chembl_id>  (477) 
CHEMBL2172747

>  <assay_type>  (477) 
B

>  <src_id>  (477) 
1

>  <ligand_efficiency>  (477) 
{u'le': u'0.46', u'bei': u'21.48', u'sei': u'5.24', u'lle': u'3.29'}

>  <standard_flag>  (477) 
True

>  <molecule_chembl_id>  (477) 
CHEMBL2172747

>  <target_organism>  (477) 
Homo sapiens

>  <standard_units>  (477) 
nM

>  <record_id>  (477) 
1743019

>  <document_chembl_id>  (477) 
CHEMBL2169810

>  <bao_format>  (477) 
BAO_0000357

>  <data_validity_description>  (477) 
None

>  <activity_id>  (477) 
12112741

>  <standard_type>  (477) 
IC50

>  <target_chembl_id>  (477) 
CHEMBL205

>  <data_validity_comment>  (477) 
None

>  <published_value>  (477) 
8.85

>  <document_year>  (477) 
2012

>  <target_pref_name>  (477) 
Carbonic anhydrase II

>  <assay_chembl_id>  (477) 
CHEMBL2173731

>  <standard_relation>  (477) 
=

>  <assay_description>  (477) 
Inhibition of human Carbonic anhydrase 2-mediated CO2 hydration by stopped-flow method

>  <published_relation>  (477) 
=

>  <standard_value>  (477) 
8850

>  <qudt_units>  (477) 
http://www.openphacts.org/units/Nanomolar

>  <target_tax_id>  (477) 
9606

>  <bao_label>  (477) 
single protein format

>  <published_units>  (477) 
uM

>  <pchembl_value>  (477) 
5.05

>  <published_type>  (477) 
IC50

>  <activity_comment>  (477) 
None

$$$$

     RDKit          

 15 15  0  0  0  0  0  0  0  0999 V2000
    0.0000    0.0000    0.0000 C   0  0  0  0  0  0  0  0  0  0  0  0
    0.0000    0.0000    0.0000 C   0  0  0  0  0  0  0  0  0  0  0  0
    0.0000    0.0000    0.0000 N   0  0  0  0  0  0  0  0  0  0  0  0
    0.0000    0.0000    0.0000 C   0  0  0  0  0  0  0  0  0  0  0  0
    0.0000    0.0000    0.0000 O   0  0  0  0  0  0  0  0  0  0  0  0
    0.0000    0.0000    0.0000 P   0  0  0  0  0  0  0  0  0  0  0  0
    0.0000    0.0000    0.0000 O   0  0  0  0  0  0  0  0  0  0  0  0
    0.0000    0.0000    0.0000 O   0  0  0  0  0  0  0  0  0  0  0  0
    0.0000    0.0000    0.0000 O   0  0  0  0  0  0  0  0  0  0  0  0
    0.0000    0.0000    0.0000 C   0  0  0  0  0  0  0  0  0  0  0  0
    0.0000    0.0000    0.0000 C   0  0  0  0  0  0  0  0  0  0  0  0
    0.0000    0.0000    0.0000 C   0  0  0  0  0  0  0  0  0  0  0  0
    0.0000    0.0000    0.0000 C   0  0  0  0  0  0  0  0  0  0  0  0
    0.0000    0.0000    0.0000 C   0  0  0  0  0  0  0  0  0  0  0  0
    0.0000    0.0000    0.0000 C   0  0  0  0  0  0  0  0  0  0  0  0
  1  2  1  0
  2  3  1  0
  3  4  1  0
  4  5  2  0
  4  6  1  0
  6  7  2  0
  6  8  1  0
  6  9  1  0
  2 10  1  0
 10 11  1  0
 11 12  1  0
 12 13  1  0
 13 14  1  0
 14 15  1  0
 15 10  1  0
M  END
>  <pIC50>  (478) 
5.03

>  <ChEMBL_ID>  (478) 
CHEMBL2172746

>  <document_journal>  (478) 
J. Med. Chem.

>  <bao_endpoint>  (478) 
BAO_0000190

>  <potential_duplicate>  (478) 
False

>  <uo_units>  (478) 
UO_0000065

>  <canonical_smiles>  (478) 
C[C@H](NC(=O)P(=O)(O)O)C1CCCCC1

>  <parent_molecule_chembl_id>  (478) 
CHEMBL2172746

>  <assay_type>  (478) 
B

>  <src_id>  (478) 
1

>  <ligand_efficiency>  (478) 
{u'le': u'0.46', u'bei': u'21.36', u'sei': u'5.21', u'lle': u'3.26'}

>  <standard_flag>  (478) 
True

>  <molecule_chembl_id>  (478) 
CHEMBL2172746

>  <target_organism>  (478) 
Homo sapiens

>  <standard_units>  (478) 
nM

>  <record_id>  (478) 
1743018

>  <document_chembl_id>  (478) 
CHEMBL2169810

>  <bao_format>  (478) 
BAO_0000357

>  <data_validity_description>  (478) 
None

>  <activity_id>  (478) 
12112742

>  <standard_type>  (478) 
IC50

>  <target_chembl_id>  (478) 
CHEMBL205

>  <data_validity_comment>  (478) 
None

>  <published_value>  (478) 
9.45

>  <document_year>  (478) 
2012

>  <target_pref_name>  (478) 
Carbonic anhydrase II

>  <assay_chembl_id>  (478) 
CHEMBL2173731

>  <standard_relation>  (478) 
=

>  <assay_description>  (478) 
Inhibition of human Carbonic anhydrase 2-mediated CO2 hydration by stopped-flow method

>  <published_relation>  (478) 
=

>  <standard_value>  (478) 
9450

>  <qudt_units>  (478) 
http://www.openphacts.org/units/Nanomolar

>  <target_tax_id>  (478) 
9606

>  <bao_label>  (478) 
single protein format

>  <published_units>  (478) 
uM

>  <pchembl_value>  (478) 
5.03

>  <published_type>  (478) 
IC50

>  <activity_comment>  (478) 
None

$$$$

     RDKit          

 15 15  0  0  0  0  0  0  0  0999 V2000
    0.0000    0.0000    0.0000 O   0  0  0  0  0  0  0  0  0  0  0  0
    0.0000    0.0000    0.0000 P   0  0  0  0  0  0  0  0  0  0  0  0
    0.0000    0.0000    0.0000 O   0  0  0  0  0  0  0  0  0  0  0  0
    0.0000    0.0000    0.0000 O   0  0  0  0  0  0  0  0  0  0  0  0
    0.0000    0.0000    0.0000 C   0  0  0  0  0  0  0  0  0  0  0  0
    0.0000    0.0000    0.0000 O   0  0  0  0  0  0  0  0  0  0  0  0
    0.0000    0.0000    0.0000 N   0  0  0  0  0  0  0  0  0  0  0  0
    0.0000    0.0000    0.0000 C   0  0  0  0  0  0  0  0  0  0  0  0
    0.0000    0.0000    0.0000 C   0  0  0  0  0  0  0  0  0  0  0  0
    0.0000    0.0000    0.0000 C   0  0  0  0  0  0  0  0  0  0  0  0
    0.0000    0.0000    0.0000 C   0  0  0  0  0  0  0  0  0  0  0  0
    0.0000    0.0000    0.0000 C   0  0  0  0  0  0  0  0  0  0  0  0
    0.0000    0.0000    0.0000 C   0  0  0  0  0  0  0  0  0  0  0  0
    0.0000    0.0000    0.0000 C   0  0  0  0  0  0  0  0  0  0  0  0
    0.0000    0.0000    0.0000 C   0  0  0  0  0  0  0  0  0  0  0  0
  1  2  1  0
  2  3  2  0
  2  4  1  0
  2  5  1  0
  5  6  2  0
  5  7  1  0
  7  8  1  0
  8  9  1  0
  9 10  1  0
 10 11  2  0
 11 12  1  0
 12 13  2  0
 13 14  1  0
 14 15  2  0
 15 10  1  0
M  END
>  <pIC50>  (479) 
5.1

>  <ChEMBL_ID>  (479) 
CHEMBL24447

>  <document_journal>  (479) 
J. Med. Chem.

>  <bao_endpoint>  (479) 
BAO_0000190

>  <potential_duplicate>  (479) 
False

>  <uo_units>  (479) 
UO_0000065

>  <canonical_smiles>  (479) 
OP(=O)(O)C(=O)NCCc1ccccc1

>  <parent_molecule_chembl_id>  (479) 
CHEMBL24447

>  <assay_type>  (479) 
B

>  <src_id>  (479) 
1

>  <ligand_efficiency>  (479) 
{u'le': u'0.46', u'bei': u'22.24', u'sei': u'5.29', u'lle': u'4'}

>  <standard_flag>  (479) 
True

>  <molecule_chembl_id>  (479) 
CHEMBL24447

>  <target_organism>  (479) 
Homo sapiens

>  <standard_units>  (479) 
nM

>  <record_id>  (479) 
1743017

>  <document_chembl_id>  (479) 
CHEMBL2169810

>  <bao_format>  (479) 
BAO_0000357

>  <data_validity_description>  (479) 
None

>  <activity_id>  (479) 
12112743

>  <standard_type>  (479) 
IC50

>  <target_chembl_id>  (479) 
CHEMBL205

>  <data_validity_comment>  (479) 
None

>  <published_value>  (479) 
8

>  <document_year>  (479) 
2012

>  <target_pref_name>  (479) 
Carbonic anhydrase II

>  <assay_chembl_id>  (479) 
CHEMBL2173731

>  <standard_relation>  (479) 
=

>  <assay_description>  (479) 
Inhibition of human Carbonic anhydrase 2-mediated CO2 hydration by stopped-flow method

>  <published_relation>  (479) 
=

>  <standard_value>  (479) 
8000

>  <qudt_units>  (479) 
http://www.openphacts.org/units/Nanomolar

>  <target_tax_id>  (479) 
9606

>  <bao_label>  (479) 
single protein format

>  <published_units>  (479) 
uM

>  <pchembl_value>  (479) 
5.1

>  <published_type>  (479) 
IC50

>  <activity_comment>  (479) 
None

$$$$

     RDKit          

 15 15  0  0  0  0  0  0  0  0999 V2000
    0.0000    0.0000    0.0000 O   0  0  0  0  0  0  0  0  0  0  0  0
    0.0000    0.0000    0.0000 P   0  0  0  0  0  0  0  0  0  0  0  0
    0.0000    0.0000    0.0000 O   0  0  0  0  0  0  0  0  0  0  0  0
    0.0000    0.0000    0.0000 O   0  0  0  0  0  0  0  0  0  0  0  0
    0.0000    0.0000    0.0000 C   0  0  0  0  0  0  0  0  0  0  0  0
    0.0000    0.0000    0.0000 O   0  0  0  0  0  0  0  0  0  0  0  0
    0.0000    0.0000    0.0000 N   0  0  0  0  0  0  0  0  0  0  0  0
    0.0000    0.0000    0.0000 C   0  0  0  0  0  0  0  0  0  0  0  0
    0.0000    0.0000    0.0000 C   0  0  0  0  0  0  0  0  0  0  0  0
    0.0000    0.0000    0.0000 C   0  0  0  0  0  0  0  0  0  0  0  0
    0.0000    0.0000    0.0000 C   0  0  0  0  0  0  0  0  0  0  0  0
    0.0000    0.0000    0.0000 C   0  0  0  0  0  0  0  0  0  0  0  0
    0.0000    0.0000    0.0000 C   0  0  0  0  0  0  0  0  0  0  0  0
    0.0000    0.0000    0.0000 C   0  0  0  0  0  0  0  0  0  0  0  0
    0.0000    0.0000    0.0000 C   0  0  0  0  0  0  0  0  0  0  0  0
  1  2  1  0
  2  3  2  0
  2  4  1  0
  2  5  1  0
  5  6  2  0
  5  7  1  0
  7  8  1  0
  8  9  1  0
  9 10  1  0
 10 11  1  0
 11 12  1  0
 12 13  1  0
 13 14  1  0
 14 15  1  0
 15  8  1  0
M  END
>  <pIC50>  (480) 
5.1

>  <ChEMBL_ID>  (480) 
CHEMBL97709

>  <document_journal>  (480) 
J. Med. Chem.

>  <bao_endpoint>  (480) 
BAO_0000190

>  <potential_duplicate>  (480) 
False

>  <uo_units>  (480) 
UO_0000065

>  <canonical_smiles>  (480) 
OP(=O)(O)C(=O)NC1CCCCCCC1

>  <parent_molecule_chembl_id>  (480) 
CHEMBL97709

>  <assay_type>  (480) 
B

>  <src_id>  (480) 
1

>  <ligand_efficiency>  (480) 
{u'le': u'0.46', u'bei': u'21.69', u'sei': u'5.29', u'lle': u'3.13'}

>  <standard_flag>  (480) 
True

>  <molecule_chembl_id>  (480) 
CHEMBL97709

>  <target_organism>  (480) 
Homo sapiens

>  <standard_units>  (480) 
nM

>  <record_id>  (480) 
1743016

>  <document_chembl_id>  (480) 
CHEMBL2169810

>  <bao_format>  (480) 
BAO_0000357

>  <data_validity_description>  (480) 
None

>  <activity_id>  (480) 
12112744

>  <standard_type>  (480) 
IC50

>  <target_chembl_id>  (480) 
CHEMBL205

>  <data_validity_comment>  (480) 
None

>  <published_value>  (480) 
7.89

>  <document_year>  (480) 
2012

>  <target_pref_name>  (480) 
Carbonic anhydrase II

>  <assay_chembl_id>  (480) 
CHEMBL2173731

>  <standard_relation>  (480) 
=

>  <assay_description>  (480) 
Inhibition of human Carbonic anhydrase 2-mediated CO2 hydration by stopped-flow method

>  <published_relation>  (480) 
=

>  <standard_value>  (480) 
7890

>  <qudt_units>  (480) 
http://www.openphacts.org/units/Nanomolar

>  <target_tax_id>  (480) 
9606

>  <bao_label>  (480) 
single protein format

>  <published_units>  (480) 
uM

>  <pchembl_value>  (480) 
5.1

>  <published_type>  (480) 
IC50

>  <activity_comment>  (480) 
None

$$$$

     RDKit          

 14 14  0  0  0  0  0  0  0  0999 V2000
    0.0000    0.0000    0.0000 O   0  0  0  0  0  0  0  0  0  0  0  0
    0.0000    0.0000    0.0000 P   0  0  0  0  0  0  0  0  0  0  0  0
    0.0000    0.0000    0.0000 O   0  0  0  0  0  0  0  0  0  0  0  0
    0.0000    0.0000    0.0000 O   0  0  0  0  0  0  0  0  0  0  0  0
    0.0000    0.0000    0.0000 C   0  0  0  0  0  0  0  0  0  0  0  0
    0.0000    0.0000    0.0000 O   0  0  0  0  0  0  0  0  0  0  0  0
    0.0000    0.0000    0.0000 N   0  0  0  0  0  0  0  0  0  0  0  0
    0.0000    0.0000    0.0000 C   0  0  0  0  0  0  0  0  0  0  0  0
    0.0000    0.0000    0.0000 C   0  0  0  0  0  0  0  0  0  0  0  0
    0.0000    0.0000    0.0000 C   0  0  0  0  0  0  0  0  0  0  0  0
    0.0000    0.0000    0.0000 C   0  0  0  0  0  0  0  0  0  0  0  0
    0.0000    0.0000    0.0000 C   0  0  0  0  0  0  0  0  0  0  0  0
    0.0000    0.0000    0.0000 C   0  0  0  0  0  0  0  0  0  0  0  0
    0.0000    0.0000    0.0000 C   0  0  0  0  0  0  0  0  0  0  0  0
  1  2  1  0
  2  3  2  0
  2  4  1  0
  2  5  1  0
  5  6  2  0
  5  7  1  0
  7  8  1  0
  8  9  1  0
  9 10  1  0
 10 11  1  0
 11 12  1  0
 12 13  1  0
 13 14  1  0
 14  9  1  0
M  END
>  <pIC50>  (481) 
5.04

>  <ChEMBL_ID>  (481) 
CHEMBL97951

>  <document_journal>  (481) 
J. Med. Chem.

>  <bao_endpoint>  (481) 
BAO_0000190

>  <potential_duplicate>  (481) 
False

>  <uo_units>  (481) 
UO_0000065

>  <canonical_smiles>  (481) 
OP(=O)(O)C(=O)NCC1CCCCC1

>  <parent_molecule_chembl_id>  (481) 
CHEMBL97951

>  <assay_type>  (481) 
B

>  <src_id>  (481) 
1

>  <ligand_efficiency>  (481) 
{u'le': u'0.49', u'bei': u'22.76', u'sei': u'5.22', u'lle': u'3.64'}

>  <standard_flag>  (481) 
True

>  <molecule_chembl_id>  (481) 
CHEMBL97951

>  <target_organism>  (481) 
Homo sapiens

>  <standard_units>  (481) 
nM

>  <record_id>  (481) 
1743015

>  <document_chembl_id>  (481) 
CHEMBL2169810

>  <bao_format>  (481) 
BAO_0000357

>  <data_validity_description>  (481) 
None

>  <activity_id>  (481) 
12112745

>  <standard_type>  (481) 
IC50

>  <target_chembl_id>  (481) 
CHEMBL205

>  <data_validity_comment>  (481) 
None

>  <published_value>  (481) 
9.23

>  <document_year>  (481) 
2012

>  <target_pref_name>  (481) 
Carbonic anhydrase II

>  <assay_chembl_id>  (481) 
CHEMBL2173731

>  <standard_relation>  (481) 
=

>  <assay_description>  (481) 
Inhibition of human Carbonic anhydrase 2-mediated CO2 hydration by stopped-flow method

>  <published_relation>  (481) 
=

>  <standard_value>  (481) 
9230

>  <qudt_units>  (481) 
http://www.openphacts.org/units/Nanomolar

>  <target_tax_id>  (481) 
9606

>  <bao_label>  (481) 
single protein format

>  <published_units>  (481) 
uM

>  <pchembl_value>  (481) 
5.04

>  <published_type>  (481) 
IC50

>  <activity_comment>  (481) 
None

$$$$

     RDKit          

 13 13  0  0  0  0  0  0  0  0999 V2000
    0.0000    0.0000    0.0000 O   0  0  0  0  0  0  0  0  0  0  0  0
    0.0000    0.0000    0.0000 P   0  0  0  0  0  0  0  0  0  0  0  0
    0.0000    0.0000    0.0000 O   0  0  0  0  0  0  0  0  0  0  0  0
    0.0000    0.0000    0.0000 O   0  0  0  0  0  0  0  0  0  0  0  0
    0.0000    0.0000    0.0000 C   0  0  0  0  0  0  0  0  0  0  0  0
    0.0000    0.0000    0.0000 O   0  0  0  0  0  0  0  0  0  0  0  0
    0.0000    0.0000    0.0000 N   0  0  0  0  0  0  0  0  0  0  0  0
    0.0000    0.0000    0.0000 C   0  0  0  0  0  0  0  0  0  0  0  0
    0.0000    0.0000    0.0000 C   0  0  0  0  0  0  0  0  0  0  0  0
    0.0000    0.0000    0.0000 C   0  0  0  0  0  0  0  0  0  0  0  0
    0.0000    0.0000    0.0000 C   0  0  0  0  0  0  0  0  0  0  0  0
    0.0000    0.0000    0.0000 C   0  0  0  0  0  0  0  0  0  0  0  0
    0.0000    0.0000    0.0000 C   0  0  0  0  0  0  0  0  0  0  0  0
  1  2  1  0
  2  3  2  0
  2  4  1  0
  2  5  1  0
  5  6  2  0
  5  7  1  0
  7  8  1  0
  8  9  1  0
  9 10  1  0
 10 11  1  0
 11 12  1  0
 12 13  1  0
 13  8  1  0
M  END
>  <pIC50>  (482) 
5.06

>  <ChEMBL_ID>  (482) 
CHEMBL329784

>  <document_journal>  (482) 
J. Med. Chem.

>  <bao_endpoint>  (482) 
BAO_0000190

>  <potential_duplicate>  (482) 
False

>  <uo_units>  (482) 
UO_0000065

>  <canonical_smiles>  (482) 
OP(=O)(O)C(=O)NC1CCCCC1

>  <parent_molecule_chembl_id>  (482) 
CHEMBL329784

>  <assay_type>  (482) 
B

>  <src_id>  (482) 
1

>  <ligand_efficiency>  (482) 
{u'le': u'0.53', u'bei': u'24.4', u'sei': u'5.24', u'lle': u'4'}

>  <standard_flag>  (482) 
True

>  <molecule_chembl_id>  (482) 
CHEMBL329784

>  <target_organism>  (482) 
Homo sapiens

>  <standard_units>  (482) 
nM

>  <record_id>  (482) 
1743014

>  <document_chembl_id>  (482) 
CHEMBL2169810

>  <bao_format>  (482) 
BAO_0000357

>  <data_validity_description>  (482) 
None

>  <activity_id>  (482) 
12112746

>  <standard_type>  (482) 
IC50

>  <target_chembl_id>  (482) 
CHEMBL205

>  <data_validity_comment>  (482) 
None

>  <published_value>  (482) 
8.81

>  <document_year>  (482) 
2012

>  <target_pref_name>  (482) 
Carbonic anhydrase II

>  <assay_chembl_id>  (482) 
CHEMBL2173731

>  <standard_relation>  (482) 
=

>  <assay_description>  (482) 
Inhibition of human Carbonic anhydrase 2-mediated CO2 hydration by stopped-flow method

>  <published_relation>  (482) 
=

>  <standard_value>  (482) 
8810

>  <qudt_units>  (482) 
http://www.openphacts.org/units/Nanomolar

>  <target_tax_id>  (482) 
9606

>  <bao_label>  (482) 
single protein format

>  <published_units>  (482) 
uM

>  <pchembl_value>  (482) 
5.06

>  <published_type>  (482) 
IC50

>  <activity_comment>  (482) 
None

$$$$

     RDKit          

 12 12  0  0  0  0  0  0  0  0999 V2000
    0.0000    0.0000    0.0000 O   0  0  0  0  0  0  0  0  0  0  0  0
    0.0000    0.0000    0.0000 P   0  0  0  0  0  0  0  0  0  0  0  0
    0.0000    0.0000    0.0000 O   0  0  0  0  0  0  0  0  0  0  0  0
    0.0000    0.0000    0.0000 O   0  0  0  0  0  0  0  0  0  0  0  0
    0.0000    0.0000    0.0000 C   0  0  0  0  0  0  0  0  0  0  0  0
    0.0000    0.0000    0.0000 O   0  0  0  0  0  0  0  0  0  0  0  0
    0.0000    0.0000    0.0000 N   0  0  0  0  0  0  0  0  0  0  0  0
    0.0000    0.0000    0.0000 C   0  0  0  0  0  0  0  0  0  0  0  0
    0.0000    0.0000    0.0000 C   0  0  0  0  0  0  0  0  0  0  0  0
    0.0000    0.0000    0.0000 C   0  0  0  0  0  0  0  0  0  0  0  0
    0.0000    0.0000    0.0000 C   0  0  0  0  0  0  0  0  0  0  0  0
    0.0000    0.0000    0.0000 C   0  0  0  0  0  0  0  0  0  0  0  0
  1  2  1  0
  2  3  2  0
  2  4  1  0
  2  5  1  0
  5  6  2  0
  5  7  1  0
  7  8  1  0
  8  9  1  0
  9 10  1  0
 10 11  1  0
 11 12  1  0
 12  8  1  0
M  END
>  <pIC50>  (483) 
5.13

>  <ChEMBL_ID>  (483) 
CHEMBL316997

>  <document_journal>  (483) 
J. Med. Chem.

>  <bao_endpoint>  (483) 
BAO_0000190

>  <potential_duplicate>  (483) 
False

>  <uo_units>  (483) 
UO_0000065

>  <canonical_smiles>  (483) 
OP(=O)(O)C(=O)NC1CCCC1

>  <parent_molecule_chembl_id>  (483) 
CHEMBL316997

>  <assay_type>  (483) 
B

>  <src_id>  (483) 
1

>  <ligand_efficiency>  (483) 
{u'le': u'0.58', u'bei': u'26.56', u'sei': u'5.32', u'lle': u'4.53'}

>  <standard_flag>  (483) 
True

>  <molecule_chembl_id>  (483) 
CHEMBL316997

>  <target_organism>  (483) 
Homo sapiens

>  <standard_units>  (483) 
nM

>  <record_id>  (483) 
1743013

>  <document_chembl_id>  (483) 
CHEMBL2169810

>  <bao_format>  (483) 
BAO_0000357

>  <data_validity_description>  (483) 
None

>  <activity_id>  (483) 
12112747

>  <standard_type>  (483) 
IC50

>  <target_chembl_id>  (483) 
CHEMBL205

>  <data_validity_comment>  (483) 
None

>  <published_value>  (483) 
7.41

>  <document_year>  (483) 
2012

>  <target_pref_name>  (483) 
Carbonic anhydrase II

>  <assay_chembl_id>  (483) 
CHEMBL2173731

>  <standard_relation>  (483) 
=

>  <assay_description>  (483) 
Inhibition of human Carbonic anhydrase 2-mediated CO2 hydration by stopped-flow method

>  <published_relation>  (483) 
=

>  <standard_value>  (483) 
7410

>  <qudt_units>  (483) 
http://www.openphacts.org/units/Nanomolar

>  <target_tax_id>  (483) 
9606

>  <bao_label>  (483) 
single protein format

>  <published_units>  (483) 
uM

>  <pchembl_value>  (483) 
5.13

>  <published_type>  (483) 
IC50

>  <activity_comment>  (483) 
None

$$$$

     RDKit          

 12 11  0  0  0  0  0  0  0  0999 V2000
    0.0000    0.0000    0.0000 C   0  0  0  0  0  0  0  0  0  0  0  0
    0.0000    0.0000    0.0000 C   0  0  0  0  0  0  0  0  0  0  0  0
    0.0000    0.0000    0.0000 C   0  0  0  0  0  0  0  0  0  0  0  0
    0.0000    0.0000    0.0000 C   0  0  0  0  0  0  0  0  0  0  0  0
    0.0000    0.0000    0.0000 C   0  0  0  0  0  0  0  0  0  0  0  0
    0.0000    0.0000    0.0000 N   0  0  0  0  0  0  0  0  0  0  0  0
    0.0000    0.0000    0.0000 C   0  0  0  0  0  0  0  0  0  0  0  0
    0.0000    0.0000    0.0000 O   0  0  0  0  0  0  0  0  0  0  0  0
    0.0000    0.0000    0.0000 P   0  0  0  0  0  0  0  0  0  0  0  0
    0.0000    0.0000    0.0000 O   0  0  0  0  0  0  0  0  0  0  0  0
    0.0000    0.0000    0.0000 O   0  0  0  0  0  0  0  0  0  0  0  0
    0.0000    0.0000    0.0000 O   0  0  0  0  0  0  0  0  0  0  0  0
  1  2  1  0
  2  3  1  0
  3  4  1  0
  4  5  1  0
  3  6  1  0
  6  7  1  0
  7  8  2  0
  7  9  1  0
  9 10  2  0
  9 11  1  0
  9 12  1  0
M  END
>  <pIC50>  (484) 
5.06

>  <ChEMBL_ID>  (484) 
CHEMBL318664

>  <document_journal>  (484) 
J. Med. Chem.

>  <bao_endpoint>  (484) 
BAO_0000190

>  <potential_duplicate>  (484) 
False

>  <uo_units>  (484) 
UO_0000065

>  <canonical_smiles>  (484) 
CCC(CC)NC(=O)P(=O)(O)O

>  <parent_molecule_chembl_id>  (484) 
CHEMBL318664

>  <assay_type>  (484) 
B

>  <src_id>  (484) 
1

>  <ligand_efficiency>  (484) 
{u'le': u'0.58', u'bei': u'25.91', u'sei': u'5.24', u'lle': u'4.09'}

>  <standard_flag>  (484) 
True

>  <molecule_chembl_id>  (484) 
CHEMBL318664

>  <target_organism>  (484) 
Homo sapiens

>  <standard_units>  (484) 
nM

>  <record_id>  (484) 
1743012

>  <document_chembl_id>  (484) 
CHEMBL2169810

>  <bao_format>  (484) 
BAO_0000357

>  <data_validity_description>  (484) 
None

>  <activity_id>  (484) 
12112748

>  <standard_type>  (484) 
IC50

>  <target_chembl_id>  (484) 
CHEMBL205

>  <data_validity_comment>  (484) 
None

>  <published_value>  (484) 
8.79

>  <document_year>  (484) 
2012

>  <target_pref_name>  (484) 
Carbonic anhydrase II

>  <assay_chembl_id>  (484) 
CHEMBL2173731

>  <standard_relation>  (484) 
=

>  <assay_description>  (484) 
Inhibition of human Carbonic anhydrase 2-mediated CO2 hydration by stopped-flow method

>  <published_relation>  (484) 
=

>  <standard_value>  (484) 
8790

>  <qudt_units>  (484) 
http://www.openphacts.org/units/Nanomolar

>  <target_tax_id>  (484) 
9606

>  <bao_label>  (484) 
single protein format

>  <published_units>  (484) 
uM

>  <pchembl_value>  (484) 
5.06

>  <published_type>  (484) 
IC50

>  <activity_comment>  (484) 
None

$$$$

     RDKit          

 10  9  0  0  0  0  0  0  0  0999 V2000
    0.0000    0.0000    0.0000 C   0  0  0  0  0  0  0  0  0  0  0  0
    0.0000    0.0000    0.0000 C   0  0  0  0  0  0  0  0  0  0  0  0
    0.0000    0.0000    0.0000 C   0  0  0  0  0  0  0  0  0  0  0  0
    0.0000    0.0000    0.0000 N   0  0  0  0  0  0  0  0  0  0  0  0
    0.0000    0.0000    0.0000 C   0  0  0  0  0  0  0  0  0  0  0  0
    0.0000    0.0000    0.0000 O   0  0  0  0  0  0  0  0  0  0  0  0
    0.0000    0.0000    0.0000 P   0  0  0  0  0  0  0  0  0  0  0  0
    0.0000    0.0000    0.0000 O   0  0  0  0  0  0  0  0  0  0  0  0
    0.0000    0.0000    0.0000 O   0  0  0  0  0  0  0  0  0  0  0  0
    0.0000    0.0000    0.0000 O   0  0  0  0  0  0  0  0  0  0  0  0
  1  2  1  0
  2  3  1  0
  2  4  1  0
  4  5  1  0
  5  6  2  0
  5  7  1  0
  7  8  2  0
  7  9  1  0
  7 10  1  0
M  END
>  <pIC50>  (485) 
4.86

>  <ChEMBL_ID>  (485) 
CHEMBL97034

>  <document_journal>  (485) 
J. Med. Chem.

>  <bao_endpoint>  (485) 
BAO_0000190

>  <potential_duplicate>  (485) 
False

>  <uo_units>  (485) 
UO_0000065

>  <canonical_smiles>  (485) 
CC(C)NC(=O)P(=O)(O)O

>  <parent_molecule_chembl_id>  (485) 
CHEMBL97034

>  <assay_type>  (485) 
B

>  <src_id>  (485) 
1

>  <ligand_efficiency>  (485) 
{u'le': u'0.66', u'bei': u'29.07', u'sei': u'5.04', u'lle': u'4.94'}

>  <standard_flag>  (485) 
True

>  <molecule_chembl_id>  (485) 
CHEMBL97034

>  <target_organism>  (485) 
Homo sapiens

>  <standard_units>  (485) 
nM

>  <record_id>  (485) 
1743011

>  <document_chembl_id>  (485) 
CHEMBL2169810

>  <bao_format>  (485) 
BAO_0000357

>  <data_validity_description>  (485) 
None

>  <activity_id>  (485) 
12112749

>  <standard_type>  (485) 
IC50

>  <target_chembl_id>  (485) 
CHEMBL205

>  <data_validity_comment>  (485) 
None

>  <published_value>  (485) 
13.87

>  <document_year>  (485) 
2012

>  <target_pref_name>  (485) 
Carbonic anhydrase II

>  <assay_chembl_id>  (485) 
CHEMBL2173731

>  <standard_relation>  (485) 
=

>  <assay_description>  (485) 
Inhibition of human Carbonic anhydrase 2-mediated CO2 hydration by stopped-flow method

>  <published_relation>  (485) 
=

>  <standard_value>  (485) 
13870

>  <qudt_units>  (485) 
http://www.openphacts.org/units/Nanomolar

>  <target_tax_id>  (485) 
9606

>  <bao_label>  (485) 
single protein format

>  <published_units>  (485) 
uM

>  <pchembl_value>  (485) 
4.86

>  <published_type>  (485) 
IC50

>  <activity_comment>  (485) 
None

$$$$

     RDKit          

 32 35  0  0  0  0  0  0  0  0999 V2000
    0.0000    0.0000    0.0000 C   0  0  0  0  0  0  0  0  0  0  0  0
    0.0000    0.0000    0.0000 C   0  0  0  0  0  0  0  0  0  0  0  0
    0.0000    0.0000    0.0000 C   0  0  0  0  0  0  0  0  0  0  0  0
    0.0000    0.0000    0.0000 C   0  0  0  0  0  0  0  0  0  0  0  0
    0.0000    0.0000    0.0000 C   0  0  0  0  0  0  0  0  0  0  0  0
    0.0000    0.0000    0.0000 C   0  0  0  0  0  0  0  0  0  0  0  0
    0.0000    0.0000    0.0000 C   0  0  0  0  0  0  0  0  0  0  0  0
    0.0000    0.0000    0.0000 S   0  0  0  0  0  0  0  0  0  0  0  0
    0.0000    0.0000    0.0000 O   0  0  0  0  0  0  0  0  0  0  0  0
    0.0000    0.0000    0.0000 O   0  0  0  0  0  0  0  0  0  0  0  0
    0.0000    0.0000    0.0000 N   0  0  0  0  0  0  0  0  0  0  0  0
    0.0000    0.0000    0.0000 C   0  0  0  0  0  0  0  0  0  0  0  0
    0.0000    0.0000    0.0000 N   0  0  0  0  0  0  0  0  0  0  0  0
    0.0000    0.0000    0.0000 N   0  0  0  0  0  0  0  0  0  0  0  0
    0.0000    0.0000    0.0000 C   0  0  0  0  0  0  0  0  0  0  0  0
    0.0000    0.0000    0.0000 N   0  0  0  0  0  0  0  0  0  0  0  0
    0.0000    0.0000    0.0000 C   0  0  0  0  0  0  0  0  0  0  0  0
    0.0000    0.0000    0.0000 C   0  0  0  0  0  0  0  0  0  0  0  0
    0.0000    0.0000    0.0000 C   0  0  0  0  0  0  0  0  0  0  0  0
    0.0000    0.0000    0.0000 C   0  0  0  0  0  0  0  0  0  0  0  0
    0.0000    0.0000    0.0000 C   0  0  0  0  0  0  0  0  0  0  0  0
    0.0000    0.0000    0.0000 C   0  0  0  0  0  0  0  0  0  0  0  0
    0.0000    0.0000    0.0000 S   0  0  0  0  0  0  0  0  0  0  0  0
    0.0000    0.0000    0.0000 O   0  0  0  0  0  0  0  0  0  0  0  0
    0.0000    0.0000    0.0000 O   0  0  0  0  0  0  0  0  0  0  0  0
    0.0000    0.0000    0.0000 N   0  0  0  0  0  0  0  0  0  0  0  0
    0.0000    0.0000    0.0000 C   0  0  0  0  0  0  0  0  0  0  0  0
    0.0000    0.0000    0.0000 C   0  0  0  0  0  0  0  0  0  0  0  0
    0.0000    0.0000    0.0000 C   0  0  0  0  0  0  0  0  0  0  0  0
    0.0000    0.0000    0.0000 C   0  0  0  0  0  0  0  0  0  0  0  0
    0.0000    0.0000    0.0000 C   0  0  0  0  0  0  0  0  0  0  0  0
    0.0000    0.0000    0.0000 C   0  0  0  0  0  0  0  0  0  0  0  0
  1  2  1  0
  2  3  2  0
  3  4  1  0
  4  5  2  0
  5  6  1  0
  6  7  2  0
  7  8  1  0
  8  9  2  0
  8 10  2  0
  8 11  1  0
  4 12  1  0
 12 13  2  0
 13 14  1  0
 14 15  2  0
 15 16  1  0
 16 17  1  0
 17 18  2  0
 18 19  1  0
 19 20  2  0
 20 21  1  0
 21 22  2  0
 20 23  1  0
 23 24  2  0
 23 25  2  0
 23 26  1  0
 15 27  1  0
 27 28  2  0
 28 29  1  0
 29 30  2  0
 30 31  1  0
 31 32  2  0
  7  2  1  0
 32 12  1  0
 22 17  1  0
 32 27  1  0
M  END
>  <pIC50>  (486) 
7.57

>  <ChEMBL_ID>  (486) 
CHEMBL2336906

>  <document_journal>  (486) 
Eur. J. Med. Chem.

>  <bao_endpoint>  (486) 
BAO_0000190

>  <potential_duplicate>  (486) 
False

>  <uo_units>  (486) 
UO_0000065

>  <canonical_smiles>  (486) 
Cc1cc(ccc1S(=O)(=O)N)c2nnc(Nc3ccc(cc3)S(=O)(=O)N)c4ccccc24

>  <parent_molecule_chembl_id>  (486) 
CHEMBL2336906

>  <assay_type>  (486) 
B

>  <src_id>  (486) 
1

>  <ligand_efficiency>  (486) 
{u'le': u'0.32', u'bei': u'16.13', u'sei': u'4.33', u'lle': u'4.52'}

>  <standard_flag>  (486) 
True

>  <molecule_chembl_id>  (486) 
CHEMBL2336906

>  <target_organism>  (486) 
Homo sapiens

>  <standard_units>  (486) 
nM

>  <record_id>  (486) 
1871887

>  <document_chembl_id>  (486) 
CHEMBL2331543

>  <bao_format>  (486) 
BAO_0000357

>  <data_validity_description>  (486) 
None

>  <activity_id>  (486) 
12679180

>  <standard_type>  (486) 
IC50

>  <target_chembl_id>  (486) 
CHEMBL205

>  <data_validity_comment>  (486) 
None

>  <published_value>  (486) 
26.8

>  <document_year>  (486) 
2013

>  <target_pref_name>  (486) 
Carbonic anhydrase II

>  <assay_chembl_id>  (486) 
CHEMBL2344101

>  <standard_relation>  (486) 
=

>  <assay_description>  (486) 
Inhibition of recombinant human carbonic anhydrase 2 after 15 mins by stopped flow CO2 hydration assay

>  <published_relation>  (486) 
=

>  <standard_value>  (486) 
26.8

>  <qudt_units>  (486) 
http://www.openphacts.org/units/Nanomolar

>  <target_tax_id>  (486) 
9606

>  <bao_label>  (486) 
single protein format

>  <published_units>  (486) 
nM

>  <pchembl_value>  (486) 
7.57

>  <published_type>  (486) 
IC50

>  <activity_comment>  (486) 
None

$$$$

     RDKit          

 32 35  0  0  0  0  0  0  0  0999 V2000
    0.0000    0.0000    0.0000 C   0  0  0  0  0  0  0  0  0  0  0  0
    0.0000    0.0000    0.0000 C   0  0  0  0  0  0  0  0  0  0  0  0
    0.0000    0.0000    0.0000 C   0  0  0  0  0  0  0  0  0  0  0  0
    0.0000    0.0000    0.0000 C   0  0  0  0  0  0  0  0  0  0  0  0
    0.0000    0.0000    0.0000 C   0  0  0  0  0  0  0  0  0  0  0  0
    0.0000    0.0000    0.0000 C   0  0  0  0  0  0  0  0  0  0  0  0
    0.0000    0.0000    0.0000 C   0  0  0  0  0  0  0  0  0  0  0  0
    0.0000    0.0000    0.0000 S   0  0  0  0  0  0  0  0  0  0  0  0
    0.0000    0.0000    0.0000 O   0  0  0  0  0  0  0  0  0  0  0  0
    0.0000    0.0000    0.0000 O   0  0  0  0  0  0  0  0  0  0  0  0
    0.0000    0.0000    0.0000 N   0  0  0  0  0  0  0  0  0  0  0  0
    0.0000    0.0000    0.0000 C   0  0  0  0  0  0  0  0  0  0  0  0
    0.0000    0.0000    0.0000 N   0  0  0  0  0  0  0  0  0  0  0  0
    0.0000    0.0000    0.0000 N   0  0  0  0  0  0  0  0  0  0  0  0
    0.0000    0.0000    0.0000 C   0  0  0  0  0  0  0  0  0  0  0  0
    0.0000    0.0000    0.0000 N   0  0  0  0  0  0  0  0  0  0  0  0
    0.0000    0.0000    0.0000 C   0  0  0  0  0  0  0  0  0  0  0  0
    0.0000    0.0000    0.0000 C   0  0  0  0  0  0  0  0  0  0  0  0
    0.0000    0.0000    0.0000 C   0  0  0  0  0  0  0  0  0  0  0  0
    0.0000    0.0000    0.0000 C   0  0  0  0  0  0  0  0  0  0  0  0
    0.0000    0.0000    0.0000 C   0  0  0  0  0  0  0  0  0  0  0  0
    0.0000    0.0000    0.0000 C   0  0  0  0  0  0  0  0  0  0  0  0
    0.0000    0.0000    0.0000 S   0  0  0  0  0  0  0  0  0  0  0  0
    0.0000    0.0000    0.0000 O   0  0  0  0  0  0  0  0  0  0  0  0
    0.0000    0.0000    0.0000 O   0  0  0  0  0  0  0  0  0  0  0  0
    0.0000    0.0000    0.0000 N   0  0  0  0  0  0  0  0  0  0  0  0
    0.0000    0.0000    0.0000 C   0  0  0  0  0  0  0  0  0  0  0  0
    0.0000    0.0000    0.0000 C   0  0  0  0  0  0  0  0  0  0  0  0
    0.0000    0.0000    0.0000 C   0  0  0  0  0  0  0  0  0  0  0  0
    0.0000    0.0000    0.0000 C   0  0  0  0  0  0  0  0  0  0  0  0
    0.0000    0.0000    0.0000 C   0  0  0  0  0  0  0  0  0  0  0  0
    0.0000    0.0000    0.0000 C   0  0  0  0  0  0  0  0  0  0  0  0
  1  2  1  0
  2  3  2  0
  3  4  1  0
  4  5  2  0
  5  6  1  0
  6  7  2  0
  7  8  1  0
  8  9  2  0
  8 10  2  0
  8 11  1  0
  5 12  1  0
 12 13  2  0
 13 14  1  0
 14 15  2  0
 15 16  1  0
 16 17  1  0
 17 18  2  0
 18 19  1  0
 19 20  2  0
 20 21  1  0
 21 22  2  0
 20 23  1  0
 23 24  2  0
 23 25  2  0
 23 26  1  0
 15 27  1  0
 27 28  2  0
 28 29  1  0
 29 30  2  0
 30 31  1  0
 31 32  2  0
  7  2  1  0
 32 12  1  0
 22 17  1  0
 32 27  1  0
M  END
>  <pIC50>  (487) 
6.26

>  <ChEMBL_ID>  (487) 
CHEMBL2336905

>  <document_journal>  (487) 
Eur. J. Med. Chem.

>  <bao_endpoint>  (487) 
BAO_0000190

>  <potential_duplicate>  (487) 
False

>  <uo_units>  (487) 
UO_0000065

>  <canonical_smiles>  (487) 
Cc1ccc(cc1S(=O)(=O)N)c2nnc(Nc3ccc(cc3)S(=O)(=O)N)c4ccccc24

>  <parent_molecule_chembl_id>  (487) 
CHEMBL2336905

>  <assay_type>  (487) 
B

>  <src_id>  (487) 
1

>  <ligand_efficiency>  (487) 
{u'le': u'0.27', u'bei': u'13.34', u'sei': u'3.58', u'lle': u'3.21'}

>  <standard_flag>  (487) 
True

>  <molecule_chembl_id>  (487) 
CHEMBL2336905

>  <target_organism>  (487) 
Homo sapiens

>  <standard_units>  (487) 
nM

>  <record_id>  (487) 
1871886

>  <document_chembl_id>  (487) 
CHEMBL2331543

>  <bao_format>  (487) 
BAO_0000357

>  <data_validity_description>  (487) 
None

>  <activity_id>  (487) 
12679181

>  <standard_type>  (487) 
IC50

>  <target_chembl_id>  (487) 
CHEMBL205

>  <data_validity_comment>  (487) 
None

>  <published_value>  (487) 
547

>  <document_year>  (487) 
2013

>  <target_pref_name>  (487) 
Carbonic anhydrase II

>  <assay_chembl_id>  (487) 
CHEMBL2344101

>  <standard_relation>  (487) 
=

>  <assay_description>  (487) 
Inhibition of recombinant human carbonic anhydrase 2 after 15 mins by stopped flow CO2 hydration assay

>  <published_relation>  (487) 
=

>  <standard_value>  (487) 
547

>  <qudt_units>  (487) 
http://www.openphacts.org/units/Nanomolar

>  <target_tax_id>  (487) 
9606

>  <bao_label>  (487) 
single protein format

>  <published_units>  (487) 
nM

>  <pchembl_value>  (487) 
6.26

>  <published_type>  (487) 
IC50

>  <activity_comment>  (487) 
None

$$$$

     RDKit          

 31 34  0  0  0  0  0  0  0  0999 V2000
    0.0000    0.0000    0.0000 N   0  0  0  0  0  0  0  0  0  0  0  0
    0.0000    0.0000    0.0000 S   0  0  0  0  0  0  0  0  0  0  0  0
    0.0000    0.0000    0.0000 O   0  0  0  0  0  0  0  0  0  0  0  0
    0.0000    0.0000    0.0000 O   0  0  0  0  0  0  0  0  0  0  0  0
    0.0000    0.0000    0.0000 C   0  0  0  0  0  0  0  0  0  0  0  0
    0.0000    0.0000    0.0000 C   0  0  0  0  0  0  0  0  0  0  0  0
    0.0000    0.0000    0.0000 C   0  0  0  0  0  0  0  0  0  0  0  0
    0.0000    0.0000    0.0000 C   0  0  0  0  0  0  0  0  0  0  0  0
    0.0000    0.0000    0.0000 N   0  0  0  0  0  0  0  0  0  0  0  0
    0.0000    0.0000    0.0000 C   0  0  0  0  0  0  0  0  0  0  0  0
    0.0000    0.0000    0.0000 N   0  0  0  0  0  0  0  0  0  0  0  0
    0.0000    0.0000    0.0000 N   0  0  0  0  0  0  0  0  0  0  0  0
    0.0000    0.0000    0.0000 C   0  0  0  0  0  0  0  0  0  0  0  0
    0.0000    0.0000    0.0000 C   0  0  0  0  0  0  0  0  0  0  0  0
    0.0000    0.0000    0.0000 C   0  0  0  0  0  0  0  0  0  0  0  0
    0.0000    0.0000    0.0000 C   0  0  0  0  0  0  0  0  0  0  0  0
    0.0000    0.0000    0.0000 C   0  0  0  0  0  0  0  0  0  0  0  0
    0.0000    0.0000    0.0000 C   0  0  0  0  0  0  0  0  0  0  0  0
    0.0000    0.0000    0.0000 C   0  0  0  0  0  0  0  0  0  0  0  0
    0.0000    0.0000    0.0000 S   0  0  0  0  0  0  0  0  0  0  0  0
    0.0000    0.0000    0.0000 O   0  0  0  0  0  0  0  0  0  0  0  0
    0.0000    0.0000    0.0000 O   0  0  0  0  0  0  0  0  0  0  0  0
    0.0000    0.0000    0.0000 N   0  0  0  0  0  0  0  0  0  0  0  0
    0.0000    0.0000    0.0000 C   0  0  0  0  0  0  0  0  0  0  0  0
    0.0000    0.0000    0.0000 C   0  0  0  0  0  0  0  0  0  0  0  0
    0.0000    0.0000    0.0000 C   0  0  0  0  0  0  0  0  0  0  0  0
    0.0000    0.0000    0.0000 C   0  0  0  0  0  0  0  0  0  0  0  0
    0.0000    0.0000    0.0000 C   0  0  0  0  0  0  0  0  0  0  0  0
    0.0000    0.0000    0.0000 C   0  0  0  0  0  0  0  0  0  0  0  0
    0.0000    0.0000    0.0000 C   0  0  0  0  0  0  0  0  0  0  0  0
    0.0000    0.0000    0.0000 C   0  0  0  0  0  0  0  0  0  0  0  0
  1  2  1  0
  2  3  2  0
  2  4  2  0
  2  5  1  0
  5  6  2  0
  6  7  1  0
  7  8  2  0
  8  9  1  0
  9 10  1  0
 10 11  2  0
 11 12  1  0
 12 13  2  0
 13 14  1  0
 14 15  2  0
 15 16  1  0
 16 17  2  0
 17 18  1  0
 18 19  2  0
 18 20  1  0
 20 21  2  0
 20 22  2  0
 20 23  1  0
 13 24  1  0
 24 25  2  0
 25 26  1  0
 26 27  2  0
 27 28  1  0
 28 29  2  0
  8 30  1  0
 30 31  2  0
 31  5  1  0
 29 10  1  0
 19 14  1  0
 29 24  1  0
M  END
>  <pIC50>  (488) 
6.34

>  <ChEMBL_ID>  (488) 
CHEMBL2336904

>  <document_journal>  (488) 
Eur. J. Med. Chem.

>  <bao_endpoint>  (488) 
BAO_0000190

>  <potential_duplicate>  (488) 
False

>  <uo_units>  (488) 
UO_0000065

>  <canonical_smiles>  (488) 
NS(=O)(=O)c1ccc(Nc2nnc(c3cccc(c3)S(=O)(=O)N)c4ccccc24)cc1

>  <parent_molecule_chembl_id>  (488) 
CHEMBL2336904

>  <assay_type>  (488) 
B

>  <src_id>  (488) 
1

>  <ligand_efficiency>  (488) 
{u'le': u'0.28', u'bei': u'13.92', u'sei': u'3.63', u'lle': u'3.77'}

>  <standard_flag>  (488) 
True

>  <molecule_chembl_id>  (488) 
CHEMBL2336904

>  <target_organism>  (488) 
Homo sapiens

>  <standard_units>  (488) 
nM

>  <record_id>  (488) 
1871885

>  <document_chembl_id>  (488) 
CHEMBL2331543

>  <bao_format>  (488) 
BAO_0000357

>  <data_validity_description>  (488) 
None

>  <activity_id>  (488) 
12679182

>  <standard_type>  (488) 
IC50

>  <target_chembl_id>  (488) 
CHEMBL205

>  <data_validity_comment>  (488) 
None

>  <published_value>  (488) 
455.1

>  <document_year>  (488) 
2013

>  <target_pref_name>  (488) 
Carbonic anhydrase II

>  <assay_chembl_id>  (488) 
CHEMBL2344101

>  <standard_relation>  (488) 
=

>  <assay_description>  (488) 
Inhibition of recombinant human carbonic anhydrase 2 after 15 mins by stopped flow CO2 hydration assay

>  <published_relation>  (488) 
=

>  <standard_value>  (488) 
455.1

>  <qudt_units>  (488) 
http://www.openphacts.org/units/Nanomolar

>  <target_tax_id>  (488) 
9606

>  <bao_label>  (488) 
single protein format

>  <published_units>  (488) 
nM

>  <pchembl_value>  (488) 
6.34

>  <published_type>  (488) 
IC50

>  <activity_comment>  (488) 
None

$$$$

     RDKit          

 28 31  0  0  0  0  0  0  0  0999 V2000
    0.0000    0.0000    0.0000 N   0  0  0  0  0  0  0  0  0  0  0  0
    0.0000    0.0000    0.0000 C   0  0  0  0  0  0  0  0  0  0  0  0
    0.0000    0.0000    0.0000 C   0  0  0  0  0  0  0  0  0  0  0  0
    0.0000    0.0000    0.0000 C   0  0  0  0  0  0  0  0  0  0  0  0
    0.0000    0.0000    0.0000 C   0  0  0  0  0  0  0  0  0  0  0  0
    0.0000    0.0000    0.0000 N   0  0  0  0  0  0  0  0  0  0  0  0
    0.0000    0.0000    0.0000 C   0  0  0  0  0  0  0  0  0  0  0  0
    0.0000    0.0000    0.0000 N   0  0  0  0  0  0  0  0  0  0  0  0
    0.0000    0.0000    0.0000 N   0  0  0  0  0  0  0  0  0  0  0  0
    0.0000    0.0000    0.0000 C   0  0  0  0  0  0  0  0  0  0  0  0
    0.0000    0.0000    0.0000 C   0  0  0  0  0  0  0  0  0  0  0  0
    0.0000    0.0000    0.0000 C   0  0  0  0  0  0  0  0  0  0  0  0
    0.0000    0.0000    0.0000 C   0  0  0  0  0  0  0  0  0  0  0  0
    0.0000    0.0000    0.0000 C   0  0  0  0  0  0  0  0  0  0  0  0
    0.0000    0.0000    0.0000 C   0  0  0  0  0  0  0  0  0  0  0  0
    0.0000    0.0000    0.0000 C   0  0  0  0  0  0  0  0  0  0  0  0
    0.0000    0.0000    0.0000 S   0  0  0  0  0  0  0  0  0  0  0  0
    0.0000    0.0000    0.0000 O   0  0  0  0  0  0  0  0  0  0  0  0
    0.0000    0.0000    0.0000 O   0  0  0  0  0  0  0  0  0  0  0  0
    0.0000    0.0000    0.0000 N   0  0  0  0  0  0  0  0  0  0  0  0
    0.0000    0.0000    0.0000 C   0  0  0  0  0  0  0  0  0  0  0  0
    0.0000    0.0000    0.0000 C   0  0  0  0  0  0  0  0  0  0  0  0
    0.0000    0.0000    0.0000 C   0  0  0  0  0  0  0  0  0  0  0  0
    0.0000    0.0000    0.0000 C   0  0  0  0  0  0  0  0  0  0  0  0
    0.0000    0.0000    0.0000 C   0  0  0  0  0  0  0  0  0  0  0  0
    0.0000    0.0000    0.0000 C   0  0  0  0  0  0  0  0  0  0  0  0
    0.0000    0.0000    0.0000 C   0  0  0  0  0  0  0  0  0  0  0  0
    0.0000    0.0000    0.0000 C   0  0  0  0  0  0  0  0  0  0  0  0
  1  2  1  0
  2  3  2  0
  3  4  1  0
  4  5  2  0
  5  6  1  0
  6  7  1  0
  7  8  2  0
  8  9  1  0
  9 10  2  0
 10 11  1  0
 11 12  2  0
 12 13  1  0
 13 14  2  0
 14 15  1  0
 15 16  2  0
 15 17  1  0
 17 18  2  0
 17 19  2  0
 17 20  1  0
 10 21  1  0
 21 22  2  0
 22 23  1  0
 23 24  2  0
 24 25  1  0
 25 26  2  0
  5 27  1  0
 27 28  2  0
 28  2  1  0
 26  7  1  0
 16 11  1  0
 26 21  1  0
M  END
>  <pIC50>  (489) 
6.83

>  <ChEMBL_ID>  (489) 
CHEMBL2336902

>  <document_journal>  (489) 
Eur. J. Med. Chem.

>  <bao_endpoint>  (489) 
BAO_0000190

>  <potential_duplicate>  (489) 
False

>  <uo_units>  (489) 
UO_0000065

>  <canonical_smiles>  (489) 
Nc1ccc(Nc2nnc(c3cccc(c3)S(=O)(=O)N)c4ccccc24)cc1

>  <parent_molecule_chembl_id>  (489) 
CHEMBL2336902

>  <assay_type>  (489) 
B

>  <src_id>  (489) 
1

>  <ligand_efficiency>  (489) 
{u'le': u'0.33', u'bei': u'17.46', u'sei': u'5.16', u'lle': u'3.71'}

>  <standard_flag>  (489) 
True

>  <molecule_chembl_id>  (489) 
CHEMBL2336902

>  <target_organism>  (489) 
Homo sapiens

>  <standard_units>  (489) 
nM

>  <record_id>  (489) 
1871883

>  <document_chembl_id>  (489) 
CHEMBL2331543

>  <bao_format>  (489) 
BAO_0000357

>  <data_validity_description>  (489) 
None

>  <activity_id>  (489) 
12681794

>  <standard_type>  (489) 
IC50

>  <target_chembl_id>  (489) 
CHEMBL205

>  <data_validity_comment>  (489) 
None

>  <published_value>  (489) 
146.5

>  <document_year>  (489) 
2013

>  <target_pref_name>  (489) 
Carbonic anhydrase II

>  <assay_chembl_id>  (489) 
CHEMBL2344101

>  <standard_relation>  (489) 
=

>  <assay_description>  (489) 
Inhibition of recombinant human carbonic anhydrase 2 after 15 mins by stopped flow CO2 hydration assay

>  <published_relation>  (489) 
=

>  <standard_value>  (489) 
146.5

>  <qudt_units>  (489) 
http://www.openphacts.org/units/Nanomolar

>  <target_tax_id>  (489) 
9606

>  <bao_label>  (489) 
single protein format

>  <published_units>  (489) 
nM

>  <pchembl_value>  (489) 
6.83

>  <published_type>  (489) 
IC50

>  <activity_comment>  (489) 
None

$$$$

     RDKit          

 29 32  0  0  0  0  0  0  0  0999 V2000
    0.0000    0.0000    0.0000 C   0  0  0  0  0  0  0  0  0  0  0  0
    0.0000    0.0000    0.0000 O   0  0  0  0  0  0  0  0  0  0  0  0
    0.0000    0.0000    0.0000 C   0  0  0  0  0  0  0  0  0  0  0  0
    0.0000    0.0000    0.0000 C   0  0  0  0  0  0  0  0  0  0  0  0
    0.0000    0.0000    0.0000 C   0  0  0  0  0  0  0  0  0  0  0  0
    0.0000    0.0000    0.0000 C   0  0  0  0  0  0  0  0  0  0  0  0
    0.0000    0.0000    0.0000 C   0  0  0  0  0  0  0  0  0  0  0  0
    0.0000    0.0000    0.0000 C   0  0  0  0  0  0  0  0  0  0  0  0
    0.0000    0.0000    0.0000 C   0  0  0  0  0  0  0  0  0  0  0  0
    0.0000    0.0000    0.0000 N   0  0  0  0  0  0  0  0  0  0  0  0
    0.0000    0.0000    0.0000 N   0  0  0  0  0  0  0  0  0  0  0  0
    0.0000    0.0000    0.0000 C   0  0  0  0  0  0  0  0  0  0  0  0
    0.0000    0.0000    0.0000 N   0  0  0  0  0  0  0  0  0  0  0  0
    0.0000    0.0000    0.0000 C   0  0  0  0  0  0  0  0  0  0  0  0
    0.0000    0.0000    0.0000 C   0  0  0  0  0  0  0  0  0  0  0  0
    0.0000    0.0000    0.0000 C   0  0  0  0  0  0  0  0  0  0  0  0
    0.0000    0.0000    0.0000 C   0  0  0  0  0  0  0  0  0  0  0  0
    0.0000    0.0000    0.0000 C   0  0  0  0  0  0  0  0  0  0  0  0
    0.0000    0.0000    0.0000 C   0  0  0  0  0  0  0  0  0  0  0  0
    0.0000    0.0000    0.0000 S   0  0  0  0  0  0  0  0  0  0  0  0
    0.0000    0.0000    0.0000 O   0  0  0  0  0  0  0  0  0  0  0  0
    0.0000    0.0000    0.0000 O   0  0  0  0  0  0  0  0  0  0  0  0
    0.0000    0.0000    0.0000 N   0  0  0  0  0  0  0  0  0  0  0  0
    0.0000    0.0000    0.0000 C   0  0  0  0  0  0  0  0  0  0  0  0
    0.0000    0.0000    0.0000 C   0  0  0  0  0  0  0  0  0  0  0  0
    0.0000    0.0000    0.0000 C   0  0  0  0  0  0  0  0  0  0  0  0
    0.0000    0.0000    0.0000 C   0  0  0  0  0  0  0  0  0  0  0  0
    0.0000    0.0000    0.0000 C   0  0  0  0  0  0  0  0  0  0  0  0
    0.0000    0.0000    0.0000 C   0  0  0  0  0  0  0  0  0  0  0  0
  1  2  1  0
  2  3  1  0
  3  4  2  0
  4  5  1  0
  5  6  2  0
  6  7  1  0
  7  8  2  0
  7  9  1  0
  9 10  2  0
 10 11  1  0
 11 12  2  0
 12 13  1  0
 13 14  1  0
 14 15  2  0
 15 16  1  0
 16 17  2  0
 17 18  1  0
 18 19  2  0
 18 20  1  0
 20 21  2  0
 20 22  2  0
 20 23  1  0
 12 24  1  0
 24 25  2  0
 25 26  1  0
 26 27  2  0
 27 28  1  0
 28 29  2  0
  8  3  1  0
 29  9  1  0
 19 14  1  0
 29 24  1  0
M  END
>  <pIC50>  (490) 
7.21

>  <ChEMBL_ID>  (490) 
CHEMBL2336901

>  <document_journal>  (490) 
Eur. J. Med. Chem.

>  <bao_endpoint>  (490) 
BAO_0000190

>  <potential_duplicate>  (490) 
False

>  <uo_units>  (490) 
UO_0000065

>  <canonical_smiles>  (490) 
COc1cccc(c1)c2nnc(Nc3cccc(c3)S(=O)(=O)N)c4ccccc24

>  <parent_molecule_chembl_id>  (490) 
CHEMBL2336901

>  <assay_type>  (490) 
B

>  <src_id>  (490) 
1

>  <ligand_efficiency>  (490) 
{u'le': u'0.34', u'bei': u'17.74', u'sei': u'6.24', u'lle': u'3.36'}

>  <standard_flag>  (490) 
True

>  <molecule_chembl_id>  (490) 
CHEMBL2336901

>  <target_organism>  (490) 
Homo sapiens

>  <standard_units>  (490) 
nM

>  <record_id>  (490) 
1871882

>  <document_chembl_id>  (490) 
CHEMBL2331543

>  <bao_format>  (490) 
BAO_0000357

>  <data_validity_description>  (490) 
None

>  <activity_id>  (490) 
12681795

>  <standard_type>  (490) 
IC50

>  <target_chembl_id>  (490) 
CHEMBL205

>  <data_validity_comment>  (490) 
None

>  <published_value>  (490) 
61.8

>  <document_year>  (490) 
2013

>  <target_pref_name>  (490) 
Carbonic anhydrase II

>  <assay_chembl_id>  (490) 
CHEMBL2344101

>  <standard_relation>  (490) 
=

>  <assay_description>  (490) 
Inhibition of recombinant human carbonic anhydrase 2 after 15 mins by stopped flow CO2 hydration assay

>  <published_relation>  (490) 
=

>  <standard_value>  (490) 
61.8

>  <qudt_units>  (490) 
http://www.openphacts.org/units/Nanomolar

>  <target_tax_id>  (490) 
9606

>  <bao_label>  (490) 
single protein format

>  <published_units>  (490) 
nM

>  <pchembl_value>  (490) 
7.21

>  <published_type>  (490) 
IC50

>  <activity_comment>  (490) 
None

$$$$

     RDKit          

 18 18  0  0  0  0  0  0  0  0999 V2000
    0.0000    0.0000    0.0000 N   0  0  0  0  0  0  0  0  0  0  0  0
    0.0000    0.0000    0.0000 S   0  0  0  0  0  0  0  0  0  0  0  0
    0.0000    0.0000    0.0000 O   0  0  0  0  0  0  0  0  0  0  0  0
    0.0000    0.0000    0.0000 O   0  0  0  0  0  0  0  0  0  0  0  0
    0.0000    0.0000    0.0000 C   0  0  0  0  0  0  0  0  0  0  0  0
    0.0000    0.0000    0.0000 C   0  0  0  0  0  0  0  0  0  0  0  0
    0.0000    0.0000    0.0000 F   0  0  0  0  0  0  0  0  0  0  0  0
    0.0000    0.0000    0.0000 C   0  0  0  0  0  0  0  0  0  0  0  0
    0.0000    0.0000    0.0000 F   0  0  0  0  0  0  0  0  0  0  0  0
    0.0000    0.0000    0.0000 C   0  0  0  0  0  0  0  0  0  0  0  0
    0.0000    0.0000    0.0000 S   0  0  0  0  0  0  0  0  0  0  0  0
    0.0000    0.0000    0.0000 C   0  0  0  0  0  0  0  0  0  0  0  0
    0.0000    0.0000    0.0000 C   0  0  0  0  0  0  0  0  0  0  0  0
    0.0000    0.0000    0.0000 O   0  0  0  0  0  0  0  0  0  0  0  0
    0.0000    0.0000    0.0000 C   0  0  0  0  0  0  0  0  0  0  0  0
    0.0000    0.0000    0.0000 F   0  0  0  0  0  0  0  0  0  0  0  0
    0.0000    0.0000    0.0000 C   0  0  0  0  0  0  0  0  0  0  0  0
    0.0000    0.0000    0.0000 F   0  0  0  0  0  0  0  0  0  0  0  0
  1  2  1  0
  2  3  2  0
  2  4  2  0
  2  5  1  0
  5  6  2  0
  6  7  1  0
  6  8  1  0
  8  9  1  0
  8 10  2  0
 10 11  1  0
 11 12  1  0
 12 13  1  0
 13 14  1  0
 10 15  1  0
 15 16  1  0
 15 17  2  0
 17 18  1  0
 17  5  1  0
M  END
>  <pIC50>  (491) 
8.0

>  <ChEMBL_ID>  (491) 
CHEMBL2333416

>  <document_journal>  (491) 
Bioorg. Med. Chem.

>  <bao_endpoint>  (491) 
BAO_0000190

>  <potential_duplicate>  (491) 
False

>  <uo_units>  (491) 
UO_0000065

>  <canonical_smiles>  (491) 
NS(=O)(=O)c1c(F)c(F)c(SCCO)c(F)c1F

>  <parent_molecule_chembl_id>  (491) 
CHEMBL2333416

>  <assay_type>  (491) 
B

>  <src_id>  (491) 
1

>  <ligand_efficiency>  (491) 
{u'le': u'0.61', u'bei': u'26.21', u'sei': u'7.01', u'lle': u'6.64'}

>  <standard_flag>  (491) 
True

>  <molecule_chembl_id>  (491) 
CHEMBL2333416

>  <target_organism>  (491) 
Homo sapiens

>  <standard_units>  (491) 
nM

>  <record_id>  (491) 
1867417

>  <document_chembl_id>  (491) 
CHEMBL2331308

>  <bao_format>  (491) 
BAO_0000357

>  <data_validity_description>  (491) 
None

>  <activity_id>  (491) 
12696087

>  <standard_type>  (491) 
IC50

>  <target_chembl_id>  (491) 
CHEMBL205

>  <data_validity_comment>  (491) 
None

>  <published_value>  (491) 
10

>  <document_year>  (491) 
2013

>  <target_pref_name>  (491) 
Carbonic anhydrase II

>  <assay_chembl_id>  (491) 
CHEMBL2340003

>  <standard_relation>  (491) 
=

>  <assay_description>  (491) 
Inhibition of human recombinant CA2 incubated for 15 mins by stop flow CO2 hydration assay

>  <published_relation>  (491) 
=

>  <standard_value>  (491) 
10

>  <qudt_units>  (491) 
http://www.openphacts.org/units/Nanomolar

>  <target_tax_id>  (491) 
9606

>  <bao_label>  (491) 
single protein format

>  <published_units>  (491) 
nM

>  <pchembl_value>  (491) 
8

>  <published_type>  (491) 
IC50

>  <activity_comment>  (491) 
None

$$$$

     RDKit          

 17 18  0  0  0  0  0  0  0  0999 V2000
    0.0000    0.0000    0.0000 C   0  0  0  0  0  0  0  0  0  0  0  0
    0.0000    0.0000    0.0000 C   0  0  0  0  0  0  0  0  0  0  0  0
    0.0000    0.0000    0.0000 N   0  0  0  0  0  0  0  0  0  0  0  0
    0.0000    0.0000    0.0000 N   0  0  0  0  0  0  0  0  0  0  0  0
    0.0000    0.0000    0.0000 C   0  0  0  0  0  0  0  0  0  0  0  0
    0.0000    0.0000    0.0000 O   0  0  0  0  0  0  0  0  0  0  0  0
    0.0000    0.0000    0.0000 C   0  0  0  0  0  0  0  0  0  0  0  0
    0.0000    0.0000    0.0000 C   0  0  0  0  0  0  0  0  0  0  0  0
    0.0000    0.0000    0.0000 C   0  0  0  0  0  0  0  0  0  0  0  0
    0.0000    0.0000    0.0000 C   0  0  0  0  0  0  0  0  0  0  0  0
    0.0000    0.0000    0.0000 C   0  0  0  0  0  0  0  0  0  0  0  0
    0.0000    0.0000    0.0000 C   0  0  0  0  0  0  0  0  0  0  0  0
    0.0000    0.0000    0.0000 C   0  0  0  0  0  0  0  0  0  0  0  0
    0.0000    0.0000    0.0000 S   0  0  0  0  0  0  0  0  0  0  0  0
    0.0000    0.0000    0.0000 O   0  0  0  0  0  0  0  0  0  0  0  0
    0.0000    0.0000    0.0000 O   0  0  0  0  0  0  0  0  0  0  0  0
    0.0000    0.0000    0.0000 N   0  0  0  0  0  0  0  0  0  0  0  0
  1  2  1  0
  2  3  2  0
  3  4  1  0
  4  5  1  0
  5  6  2  0
  5  7  1  0
  4  8  1  0
  8  9  2  0
  9 10  1  0
 10 11  2  0
 11 12  1  0
 12 13  2  0
 12 14  1  0
 14 15  2  0
 14 16  2  0
 14 17  1  0
  7  2  1  0
 13  8  1  0
M  END
>  <pIC50>  (492) 
6.09

>  <ChEMBL_ID>  (492) 
CHEMBL2392434

>  <document_journal>  (492) 
Bioorg. Med. Chem. Lett.

>  <bao_endpoint>  (492) 
BAO_0000190

>  <potential_duplicate>  (492) 
False

>  <uo_units>  (492) 
UO_0000065

>  <canonical_smiles>  (492) 
CC1=NN(C(=O)C1)c2cccc(c2)S(=O)(=O)N

>  <parent_molecule_chembl_id>  (492) 
CHEMBL2392434

>  <assay_type>  (492) 
B

>  <src_id>  (492) 
1

>  <ligand_efficiency>  (492) 
{u'le': u'0.49', u'bei': u'24.05', u'sei': u'6.02', u'lle': u'6.26'}

>  <standard_flag>  (492) 
True

>  <molecule_chembl_id>  (492) 
CHEMBL2392434

>  <target_organism>  (492) 
Homo sapiens

>  <standard_units>  (492) 
nM

>  <record_id>  (492) 
1900512

>  <document_chembl_id>  (492) 
CHEMBL2390891

>  <bao_format>  (492) 
BAO_0000219

>  <data_validity_description>  (492) 
None

>  <activity_id>  (492) 
13344576

>  <standard_type>  (492) 
IC50

>  <target_chembl_id>  (492) 
CHEMBL205

>  <data_validity_comment>  (492) 
None

>  <published_value>  (492) 
808.81

>  <document_year>  (492) 
2013

>  <target_pref_name>  (492) 
Carbonic anhydrase II

>  <assay_chembl_id>  (492) 
CHEMBL2394010

>  <standard_relation>  (492) 
=

>  <assay_description>  (492) 
Inhibition of full length carbonic anhydrase-2 in human erythrocytes

>  <published_relation>  (492) 
=

>  <standard_value>  (492) 
808.81

>  <qudt_units>  (492) 
http://www.openphacts.org/units/Nanomolar

>  <target_tax_id>  (492) 
9606

>  <bao_label>  (492) 
cell-based format

>  <published_units>  (492) 
nM

>  <pchembl_value>  (492) 
6.09

>  <published_type>  (492) 
IC50

>  <activity_comment>  (492) 
None

$$$$

     RDKit          

 22 23  0  0  0  0  0  0  0  0999 V2000
    0.0000    0.0000    0.0000 C   0  0  0  0  0  0  0  0  0  0  0  0
    0.0000    0.0000    0.0000 O   0  0  0  0  0  0  0  0  0  0  0  0
    0.0000    0.0000    0.0000 C   0  0  0  0  0  0  0  0  0  0  0  0
    0.0000    0.0000    0.0000 C   0  0  0  0  0  0  0  0  0  0  0  0
    0.0000    0.0000    0.0000 C   0  0  0  0  0  0  0  0  0  0  0  0
    0.0000    0.0000    0.0000 C   0  0  0  0  0  0  0  0  0  0  0  0
    0.0000    0.0000    0.0000 C   0  0  0  0  0  0  0  0  0  0  0  0
    0.0000    0.0000    0.0000 N   0  0  0  0  0  0  0  0  0  0  0  0
    0.0000    0.0000    0.0000 C   0  0  0  0  0  0  0  0  0  0  0  0
    0.0000    0.0000    0.0000 C   0  0  0  0  0  0  0  0  0  0  0  0
    0.0000    0.0000    0.0000 C   0  0  0  0  0  0  0  0  0  0  0  0
    0.0000    0.0000    0.0000 C   0  0  0  0  0  0  0  0  0  0  0  0
    0.0000    0.0000    0.0000 C   0  0  0  0  0  0  0  0  0  0  0  0
    0.0000    0.0000    0.0000 C   0  0  0  0  0  0  0  0  0  0  0  0
    0.0000    0.0000    0.0000 S   0  0  0  0  0  0  0  0  0  0  0  0
    0.0000    0.0000    0.0000 O   0  0  0  0  0  0  0  0  0  0  0  0
    0.0000    0.0000    0.0000 O   0  0  0  0  0  0  0  0  0  0  0  0
    0.0000    0.0000    0.0000 N   0  0  0  0  0  0  0  0  0  0  0  0
    0.0000    0.0000    0.0000 C   0  0  0  0  0  0  0  0  0  0  0  0
    0.0000    0.0000    0.0000 C   0  0  0  0  0  0  0  0  0  0  0  0
    0.0000    0.0000    0.0000 O   0  0  0  0  0  0  0  0  0  0  0  0
    0.0000    0.0000    0.0000 C   0  0  0  0  0  0  0  0  0  0  0  0
  1  2  1  0
  2  3  1  0
  3  4  2  0
  4  5  1  0
  5  6  2  0
  6  7  1  0
  7  8  1  0
  8  9  1  0
  9 10  2  0
 10 11  1  0
 11 12  2  0
 12 13  1  0
 13 14  2  0
 12 15  1  0
 15 16  2  0
 15 17  2  0
 15 18  1  0
  6 19  1  0
 19 20  2  0
 20 21  1  0
 21 22  1  0
 20  3  1  0
 14  9  1  0
M  END
>  <pIC50>  (493) 
7.9

>  <ChEMBL_ID>  (493) 
CHEMBL2392433

>  <document_journal>  (493) 
Bioorg. Med. Chem. Lett.

>  <bao_endpoint>  (493) 
BAO_0000190

>  <potential_duplicate>  (493) 
False

>  <uo_units>  (493) 
UO_0000065

>  <canonical_smiles>  (493) 
COc1ccc(CNc2ccc(cc2)S(=O)(=O)N)cc1OC

>  <parent_molecule_chembl_id>  (493) 
CHEMBL2392433

>  <assay_type>  (493) 
B

>  <src_id>  (493) 
1

>  <ligand_efficiency>  (493) 
{u'le': u'0.49', u'bei': u'24.51', u'sei': u'7.98', u'lle': u'6.01'}

>  <standard_flag>  (493) 
True

>  <molecule_chembl_id>  (493) 
CHEMBL2392433

>  <target_organism>  (493) 
Homo sapiens

>  <standard_units>  (493) 
nM

>  <record_id>  (493) 
1900511

>  <document_chembl_id>  (493) 
CHEMBL2390891

>  <bao_format>  (493) 
BAO_0000219

>  <data_validity_description>  (493) 
None

>  <activity_id>  (493) 
13344577

>  <standard_type>  (493) 
IC50

>  <target_chembl_id>  (493) 
CHEMBL205

>  <data_validity_comment>  (493) 
None

>  <published_value>  (493) 
12.54

>  <document_year>  (493) 
2013

>  <target_pref_name>  (493) 
Carbonic anhydrase II

>  <assay_chembl_id>  (493) 
CHEMBL2394010

>  <standard_relation>  (493) 
=

>  <assay_description>  (493) 
Inhibition of full length carbonic anhydrase-2 in human erythrocytes

>  <published_relation>  (493) 
=

>  <standard_value>  (493) 
12.54

>  <qudt_units>  (493) 
http://www.openphacts.org/units/Nanomolar

>  <target_tax_id>  (493) 
9606

>  <bao_label>  (493) 
cell-based format

>  <published_units>  (493) 
nM

>  <pchembl_value>  (493) 
7.9

>  <published_type>  (493) 
IC50

>  <activity_comment>  (493) 
None

$$$$

     RDKit          

 26 28  0  0  0  0  0  0  0  0999 V2000
    0.0000    0.0000    0.0000 N   0  0  0  0  0  0  0  0  0  0  0  0
    0.0000    0.0000    0.0000 S   0  0  0  0  0  0  0  0  0  0  0  0
    0.0000    0.0000    0.0000 O   0  0  0  0  0  0  0  0  0  0  0  0
    0.0000    0.0000    0.0000 O   0  0  0  0  0  0  0  0  0  0  0  0
    0.0000    0.0000    0.0000 C   0  0  0  0  0  0  0  0  0  0  0  0
    0.0000    0.0000    0.0000 C   0  0  0  0  0  0  0  0  0  0  0  0
    0.0000    0.0000    0.0000 C   0  0  0  0  0  0  0  0  0  0  0  0
    0.0000    0.0000    0.0000 C   0  0  0  0  0  0  0  0  0  0  0  0
    0.0000    0.0000    0.0000 C   0  0  0  0  0  0  0  0  0  0  0  0
    0.0000    0.0000    0.0000 N   0  0  0  0  0  0  0  0  0  0  0  0
    0.0000    0.0000    0.0000 C   0  0  0  0  0  0  0  0  0  0  0  0
    0.0000    0.0000    0.0000 C   0  0  0  0  0  0  0  0  0  0  0  0
    0.0000    0.0000    0.0000 C   0  0  0  0  0  0  0  0  0  0  0  0
    0.0000    0.0000    0.0000 O   0  0  0  0  0  0  0  0  0  0  0  0
    0.0000    0.0000    0.0000 N   0  0  0  0  0  0  0  0  0  0  0  0
    0.0000    0.0000    0.0000 C   0  0  0  0  0  0  0  0  0  0  0  0
    0.0000    0.0000    0.0000 O   0  0  0  0  0  0  0  0  0  0  0  0
    0.0000    0.0000    0.0000 C   0  0  0  0  0  0  0  0  0  0  0  0
    0.0000    0.0000    0.0000 C   0  0  0  0  0  0  0  0  0  0  0  0
    0.0000    0.0000    0.0000 C   0  0  0  0  0  0  0  0  0  0  0  0
    0.0000    0.0000    0.0000 C   0  0  0  0  0  0  0  0  0  0  0  0
    0.0000    0.0000    0.0000 C   0  0  0  0  0  0  0  0  0  0  0  0
    0.0000    0.0000    0.0000 Br  0  0  0  0  0  0  0  0  0  0  0  0
    0.0000    0.0000    0.0000 C   0  0  0  0  0  0  0  0  0  0  0  0
    0.0000    0.0000    0.0000 C   0  0  0  0  0  0  0  0  0  0  0  0
    0.0000    0.0000    0.0000 C   0  0  0  0  0  0  0  0  0  0  0  0
  1  2  1  0
  2  3  2  0
  2  4  2  0
  2  5  1  0
  5  6  2  0
  6  7  1  0
  7  8  2  0
  8  9  1  0
  9 10  1  0
 10 11  1  0
 11 12  1  0
 12 13  1  0
 13 14  2  0
 13 15  1  0
 15 16  1  0
 16 17  2  0
 15 18  1  0
 18 19  2  0
 19 20  1  0
 20 21  2  0
 21 22  1  0
 22 23  1  0
 22 24  2  0
  8 25  1  0
 25 26  2  0
 26  5  1  0
 16 11  1  0
 24 18  1  0
M  END
>  <pIC50>  (494) 
7.32

>  <ChEMBL_ID>  (494) 
CHEMBL2392432

>  <document_journal>  (494) 
Bioorg. Med. Chem. Lett.

>  <bao_endpoint>  (494) 
BAO_0000190

>  <potential_duplicate>  (494) 
False

>  <uo_units>  (494) 
UO_0000065

>  <canonical_smiles>  (494) 
NS(=O)(=O)c1ccc(CNC2CC(=O)N(C2=O)c3cccc(Br)c3)cc1

>  <parent_molecule_chembl_id>  (494) 
CHEMBL2392432

>  <assay_type>  (494) 
B

>  <src_id>  (494) 
1

>  <ligand_efficiency>  (494) 
{u'le': u'0.38', u'bei': u'16.7', u'sei': u'6.2', u'lle': u'5.8'}

>  <standard_flag>  (494) 
True

>  <molecule_chembl_id>  (494) 
CHEMBL2392432

>  <target_organism>  (494) 
Homo sapiens

>  <standard_units>  (494) 
nM

>  <record_id>  (494) 
1900510

>  <document_chembl_id>  (494) 
CHEMBL2390891

>  <bao_format>  (494) 
BAO_0000219

>  <data_validity_description>  (494) 
None

>  <activity_id>  (494) 
13344578

>  <standard_type>  (494) 
IC50

>  <target_chembl_id>  (494) 
CHEMBL205

>  <data_validity_comment>  (494) 
None

>  <published_value>  (494) 
48.09

>  <document_year>  (494) 
2013

>  <target_pref_name>  (494) 
Carbonic anhydrase II

>  <assay_chembl_id>  (494) 
CHEMBL2394010

>  <standard_relation>  (494) 
=

>  <assay_description>  (494) 
Inhibition of full length carbonic anhydrase-2 in human erythrocytes

>  <published_relation>  (494) 
=

>  <standard_value>  (494) 
48.09

>  <qudt_units>  (494) 
http://www.openphacts.org/units/Nanomolar

>  <target_tax_id>  (494) 
9606

>  <bao_label>  (494) 
cell-based format

>  <published_units>  (494) 
nM

>  <pchembl_value>  (494) 
7.32

>  <published_type>  (494) 
IC50

>  <activity_comment>  (494) 
None

$$$$

     RDKit          

 23 24  0  0  0  0  0  0  0  0999 V2000
    0.0000    0.0000    0.0000 C   0  0  0  0  0  0  0  0  0  0  0  0
    0.0000    0.0000    0.0000 O   0  0  0  0  0  0  0  0  0  0  0  0
    0.0000    0.0000    0.0000 C   0  0  0  0  0  0  0  0  0  0  0  0
    0.0000    0.0000    0.0000 C   0  0  0  0  0  0  0  0  0  0  0  0
    0.0000    0.0000    0.0000 C   0  0  0  0  0  0  0  0  0  0  0  0
    0.0000    0.0000    0.0000 C   0  0  0  0  0  0  0  0  0  0  0  0
    0.0000    0.0000    0.0000 Cl  0  0  0  0  0  0  0  0  0  0  0  0
    0.0000    0.0000    0.0000 C   0  0  0  0  0  0  0  0  0  0  0  0
    0.0000    0.0000    0.0000 C   0  0  0  0  0  0  0  0  0  0  0  0
    0.0000    0.0000    0.0000 C   0  0  0  0  0  0  0  0  0  0  0  0
    0.0000    0.0000    0.0000 N   0  0  0  0  0  0  0  0  0  0  0  0
    0.0000    0.0000    0.0000 C   0  0  0  0  0  0  0  0  0  0  0  0
    0.0000    0.0000    0.0000 C   0  0  0  0  0  0  0  0  0  0  0  0
    0.0000    0.0000    0.0000 C   0  0  0  0  0  0  0  0  0  0  0  0
    0.0000    0.0000    0.0000 C   0  0  0  0  0  0  0  0  0  0  0  0
    0.0000    0.0000    0.0000 C   0  0  0  0  0  0  0  0  0  0  0  0
    0.0000    0.0000    0.0000 C   0  0  0  0  0  0  0  0  0  0  0  0
    0.0000    0.0000    0.0000 C   0  0  0  0  0  0  0  0  0  0  0  0
    0.0000    0.0000    0.0000 C   0  0  0  0  0  0  0  0  0  0  0  0
    0.0000    0.0000    0.0000 S   0  0  0  0  0  0  0  0  0  0  0  0
    0.0000    0.0000    0.0000 O   0  0  0  0  0  0  0  0  0  0  0  0
    0.0000    0.0000    0.0000 O   0  0  0  0  0  0  0  0  0  0  0  0
    0.0000    0.0000    0.0000 N   0  0  0  0  0  0  0  0  0  0  0  0
  1  2  1  0
  2  3  1  0
  3  4  2  0
  4  5  1  0
  5  6  2  0
  6  7  1  0
  6  8  1  0
  8  9  2  0
  9 10  1  0
 10 11  1  0
 11 12  1  0
 12 13  1  0
 13 14  1  0
 14 15  2  0
 15 16  1  0
 16 17  2  0
 17 18  1  0
 18 19  2  0
 17 20  1  0
 20 21  2  0
 20 22  2  0
 20 23  1  0
  9  3  1  0
 19 14  1  0
M  END
>  <pIC50>  (495) 
6.17

>  <ChEMBL_ID>  (495) 
CHEMBL2392431

>  <document_journal>  (495) 
Bioorg. Med. Chem. Lett.

>  <bao_endpoint>  (495) 
BAO_0000190

>  <potential_duplicate>  (495) 
False

>  <uo_units>  (495) 
UO_0000065

>  <canonical_smiles>  (495) 
COc1ccc(Cl)cc1CNCCc2ccc(cc2)S(=O)(=O)N

>  <parent_molecule_chembl_id>  (495) 
CHEMBL2392431

>  <assay_type>  (495) 
B

>  <src_id>  (495) 
1

>  <ligand_efficiency>  (495) 
{u'le': u'0.37', u'bei': u'17.4', u'sei': u'6.87', u'lle': u'3.54'}

>  <standard_flag>  (495) 
True

>  <molecule_chembl_id>  (495) 
CHEMBL2392431

>  <target_organism>  (495) 
Homo sapiens

>  <standard_units>  (495) 
nM

>  <record_id>  (495) 
1900509

>  <document_chembl_id>  (495) 
CHEMBL2390891

>  <bao_format>  (495) 
BAO_0000219

>  <data_validity_description>  (495) 
None

>  <activity_id>  (495) 
13344579

>  <standard_type>  (495) 
IC50

>  <target_chembl_id>  (495) 
CHEMBL205

>  <data_validity_comment>  (495) 
None

>  <published_value>  (495) 
670.72

>  <document_year>  (495) 
2013

>  <target_pref_name>  (495) 
Carbonic anhydrase II

>  <assay_chembl_id>  (495) 
CHEMBL2394010

>  <standard_relation>  (495) 
=

>  <assay_description>  (495) 
Inhibition of full length carbonic anhydrase-2 in human erythrocytes

>  <published_relation>  (495) 
=

>  <standard_value>  (495) 
670.72

>  <qudt_units>  (495) 
http://www.openphacts.org/units/Nanomolar

>  <target_tax_id>  (495) 
9606

>  <bao_label>  (495) 
cell-based format

>  <published_units>  (495) 
nM

>  <pchembl_value>  (495) 
6.17

>  <published_type>  (495) 
IC50

>  <activity_comment>  (495) 
None

$$$$

     RDKit          

 27 30  0  0  0  0  0  0  0  0999 V2000
    0.0000    0.0000    0.0000 N   0  0  0  0  0  0  0  0  0  0  0  0
    0.0000    0.0000    0.0000 S   0  0  0  0  0  0  0  0  0  0  0  0
    0.0000    0.0000    0.0000 O   0  0  0  0  0  0  0  0  0  0  0  0
    0.0000    0.0000    0.0000 O   0  0  0  0  0  0  0  0  0  0  0  0
    0.0000    0.0000    0.0000 C   0  0  0  0  0  0  0  0  0  0  0  0
    0.0000    0.0000    0.0000 C   0  0  0  0  0  0  0  0  0  0  0  0
    0.0000    0.0000    0.0000 C   0  0  0  0  0  0  0  0  0  0  0  0
    0.0000    0.0000    0.0000 C   0  0  0  0  0  0  0  0  0  0  0  0
    0.0000    0.0000    0.0000 C   0  0  0  0  0  0  0  0  0  0  0  0
    0.0000    0.0000    0.0000 N   0  0  0  0  0  0  0  0  0  0  0  0
    0.0000    0.0000    0.0000 S   0  0  0  0  0  0  0  0  0  0  0  0
    0.0000    0.0000    0.0000 O   0  0  0  0  0  0  0  0  0  0  0  0
    0.0000    0.0000    0.0000 O   0  0  0  0  0  0  0  0  0  0  0  0
    0.0000    0.0000    0.0000 C   0  0  0  0  0  0  0  0  0  0  0  0
    0.0000    0.0000    0.0000 C   0  0  0  0  0  0  0  0  0  0  0  0
    0.0000    0.0000    0.0000 C   0  0  0  0  0  0  0  0  0  0  0  0
    0.0000    0.0000    0.0000 C   0  0  0  0  0  0  0  0  0  0  0  0
    0.0000    0.0000    0.0000 N   0  0  0  0  0  0  0  0  0  0  0  0
    0.0000    0.0000    0.0000 C   0  0  0  0  0  0  0  0  0  0  0  0
    0.0000    0.0000    0.0000 O   0  0  0  0  0  0  0  0  0  0  0  0
    0.0000    0.0000    0.0000 C   0  0  0  0  0  0  0  0  0  0  0  0
    0.0000    0.0000    0.0000 C   0  0  0  0  0  0  0  0  0  0  0  0
    0.0000    0.0000    0.0000 C   0  0  0  0  0  0  0  0  0  0  0  0
    0.0000    0.0000    0.0000 C   0  0  0  0  0  0  0  0  0  0  0  0
    0.0000    0.0000    0.0000 C   0  0  0  0  0  0  0  0  0  0  0  0
    0.0000    0.0000    0.0000 C   0  0  0  0  0  0  0  0  0  0  0  0
    0.0000    0.0000    0.0000 C   0  0  0  0  0  0  0  0  0  0  0  0
  1  2  1  0
  2  3  2  0
  2  4  2  0
  2  5  1  0
  5  6  2  0
  6  7  1  0
  7  8  2  0
  8  9  1  0
  9 10  1  0
 10 11  1  0
 11 12  2  0
 11 13  2  0
 11 14  1  0
 14 15  2  0
 15 16  1  0
 16 17  2  0
 17 18  1  0
 18 19  1  0
 19 20  2  0
 19 21  1  0
 21 22  1  0
 22 23  2  0
 23 24  1  0
 24 25  2  0
 25 26  1  0
  9 27  2  0
 27  5  1  0
 25 14  1  0
 26 17  1  0
 26 21  2  0
M  END
>  <pIC50>  (496) 
5.41

>  <ChEMBL_ID>  (496) 
CHEMBL2392430

>  <document_journal>  (496) 
Bioorg. Med. Chem. Lett.

>  <bao_endpoint>  (496) 
BAO_0000190

>  <potential_duplicate>  (496) 
False

>  <uo_units>  (496) 
UO_0000065

>  <canonical_smiles>  (496) 
NS(=O)(=O)c1cccc(NS(=O)(=O)c2ccc3NC(=O)c4cccc2c34)c1

>  <parent_molecule_chembl_id>  (496) 
CHEMBL2392430

>  <assay_type>  (496) 
B

>  <src_id>  (496) 
1

>  <ligand_efficiency>  (496) 
{u'le': u'0.27', u'bei': u'13.41', u'sei': u'3.56', u'lle': u'4.52'}

>  <standard_flag>  (496) 
True

>  <molecule_chembl_id>  (496) 
CHEMBL2392430

>  <target_organism>  (496) 
Homo sapiens

>  <standard_units>  (496) 
nM

>  <record_id>  (496) 
1900508

>  <document_chembl_id>  (496) 
CHEMBL2390891

>  <bao_format>  (496) 
BAO_0000219

>  <data_validity_description>  (496) 
None

>  <activity_id>  (496) 
13344580

>  <standard_type>  (496) 
IC50

>  <target_chembl_id>  (496) 
CHEMBL205

>  <data_validity_comment>  (496) 
None

>  <published_value>  (496) 
3873

>  <document_year>  (496) 
2013

>  <target_pref_name>  (496) 
Carbonic anhydrase II

>  <assay_chembl_id>  (496) 
CHEMBL2394010

>  <standard_relation>  (496) 
=

>  <assay_description>  (496) 
Inhibition of full length carbonic anhydrase-2 in human erythrocytes

>  <published_relation>  (496) 
=

>  <standard_value>  (496) 
3873

>  <qudt_units>  (496) 
http://www.openphacts.org/units/Nanomolar

>  <target_tax_id>  (496) 
9606

>  <bao_label>  (496) 
cell-based format

>  <published_units>  (496) 
nM

>  <pchembl_value>  (496) 
5.41

>  <published_type>  (496) 
IC50

>  <activity_comment>  (496) 
None

$$$$

     RDKit          

 26 28  0  0  0  0  0  0  0  0999 V2000
    0.0000    0.0000    0.0000 N   0  0  0  0  0  0  0  0  0  0  0  0
    0.0000    0.0000    0.0000 S   0  0  0  0  0  0  0  0  0  0  0  0
    0.0000    0.0000    0.0000 O   0  0  0  0  0  0  0  0  0  0  0  0
    0.0000    0.0000    0.0000 O   0  0  0  0  0  0  0  0  0  0  0  0
    0.0000    0.0000    0.0000 C   0  0  0  0  0  0  0  0  0  0  0  0
    0.0000    0.0000    0.0000 C   0  0  0  0  0  0  0  0  0  0  0  0
    0.0000    0.0000    0.0000 C   0  0  0  0  0  0  0  0  0  0  0  0
    0.0000    0.0000    0.0000 C   0  0  0  0  0  0  0  0  0  0  0  0
    0.0000    0.0000    0.0000 N   0  0  0  0  0  0  0  0  0  0  0  0
    0.0000    0.0000    0.0000 C   0  0  0  0  0  0  0  0  0  0  0  0
    0.0000    0.0000    0.0000 O   0  0  0  0  0  0  0  0  0  0  0  0
    0.0000    0.0000    0.0000 C   0  0  0  0  0  0  0  0  0  0  0  0
    0.0000    0.0000    0.0000 C   0  0  0  0  0  0  0  0  0  0  0  0
    0.0000    0.0000    0.0000 C   0  0  0  0  0  0  0  0  0  0  0  0
    0.0000    0.0000    0.0000 C   0  0  0  0  0  0  0  0  0  0  0  0
    0.0000    0.0000    0.0000 C   0  0  0  0  0  0  0  0  0  0  0  0
    0.0000    0.0000    0.0000 C   0  0  0  0  0  0  0  0  0  0  0  0
    0.0000    0.0000    0.0000 N   0  0  0  0  0  0  0  0  0  0  0  0
    0.0000    0.0000    0.0000 C   0  0  0  0  0  0  0  0  0  0  0  0
    0.0000    0.0000    0.0000 O   0  0  0  0  0  0  0  0  0  0  0  0
    0.0000    0.0000    0.0000 C   0  0  0  0  0  0  0  0  0  0  0  0
    0.0000    0.0000    0.0000 C   0  0  0  0  0  0  0  0  0  0  0  0
    0.0000    0.0000    0.0000 C   0  0  0  0  0  0  0  0  0  0  0  0
    0.0000    0.0000    0.0000 O   0  0  0  0  0  0  0  0  0  0  0  0
    0.0000    0.0000    0.0000 C   0  0  0  0  0  0  0  0  0  0  0  0
    0.0000    0.0000    0.0000 C   0  0  0  0  0  0  0  0  0  0  0  0
  1  2  1  0
  2  3  2  0
  2  4  2  0
  2  5  1  0
  5  6  2  0
  6  7  1  0
  7  8  2  0
  8  9  1  0
  9 10  1  0
 10 11  2  0
 10 12  1  0
 12 13  2  0
 13 14  1  0
 14 15  2  0
 15 16  1  0
 16 17  2  0
 16 18  1  0
 18 19  1  0
 19 20  2  0
 19 21  1  0
 21 22  1  0
 22 23  1  0
 23 24  2  0
  8 25  1  0
 25 26  2  0
 26  5  1  0
 17 12  1  0
 23 18  1  0
M  END
>  <pIC50>  (497) 
7.47

>  <ChEMBL_ID>  (497) 
CHEMBL2392429

>  <document_journal>  (497) 
Bioorg. Med. Chem. Lett.

>  <bao_endpoint>  (497) 
BAO_0000190

>  <potential_duplicate>  (497) 
False

>  <uo_units>  (497) 
UO_0000065

>  <canonical_smiles>  (497) 
NS(=O)(=O)c1ccc(NC(=O)c2cccc(c2)N3C(=O)CCC3=O)cc1

>  <parent_molecule_chembl_id>  (497) 
CHEMBL2392429

>  <assay_type>  (497) 
B

>  <src_id>  (497) 
1

>  <ligand_efficiency>  (497) 
{u'le': u'0.39', u'bei': u'20.01', u'sei': u'5.53', u'lle': u'6.99'}

>  <standard_flag>  (497) 
True

>  <molecule_chembl_id>  (497) 
CHEMBL2392429

>  <target_organism>  (497) 
Homo sapiens

>  <standard_units>  (497) 
nM

>  <record_id>  (497) 
1900507

>  <document_chembl_id>  (497) 
CHEMBL2390891

>  <bao_format>  (497) 
BAO_0000219

>  <data_validity_description>  (497) 
None

>  <activity_id>  (497) 
13344581

>  <standard_type>  (497) 
IC50

>  <target_chembl_id>  (497) 
CHEMBL205

>  <data_validity_comment>  (497) 
None

>  <published_value>  (497) 
33.92

>  <document_year>  (497) 
2013

>  <target_pref_name>  (497) 
Carbonic anhydrase II

>  <assay_chembl_id>  (497) 
CHEMBL2394010

>  <standard_relation>  (497) 
=

>  <assay_description>  (497) 
Inhibition of full length carbonic anhydrase-2 in human erythrocytes

>  <published_relation>  (497) 
=

>  <standard_value>  (497) 
33.92

>  <qudt_units>  (497) 
http://www.openphacts.org/units/Nanomolar

>  <target_tax_id>  (497) 
9606

>  <bao_label>  (497) 
cell-based format

>  <published_units>  (497) 
nM

>  <pchembl_value>  (497) 
7.47

>  <published_type>  (497) 
IC50

>  <activity_comment>  (497) 
None

$$$$

     RDKit          

 26 28  0  0  0  0  0  0  0  0999 V2000
    0.0000    0.0000    0.0000 C   0  0  0  0  0  0  0  0  0  0  0  0
    0.0000    0.0000    0.0000 C   0  0  0  0  0  0  0  0  0  0  0  0
    0.0000    0.0000    0.0000 N   0  0  0  0  0  0  0  0  0  0  0  0
    0.0000    0.0000    0.0000 N   0  0  0  0  0  0  0  0  0  0  0  0
    0.0000    0.0000    0.0000 C   0  0  0  0  0  0  0  0  0  0  0  0
    0.0000    0.0000    0.0000 O   0  0  0  0  0  0  0  0  0  0  0  0
    0.0000    0.0000    0.0000 C   0  0  0  0  0  0  0  0  0  0  0  0
    0.0000    0.0000    0.0000 C   0  0  0  0  0  0  0  0  0  0  0  0
    0.0000    0.0000    0.0000 C   0  0  0  0  0  0  0  0  0  0  0  0
    0.0000    0.0000    0.0000 C   0  0  0  0  0  0  0  0  0  0  0  0
    0.0000    0.0000    0.0000 C   0  0  0  0  0  0  0  0  0  0  0  0
    0.0000    0.0000    0.0000 C   0  0  0  0  0  0  0  0  0  0  0  0
    0.0000    0.0000    0.0000 C   0  0  0  0  0  0  0  0  0  0  0  0
    0.0000    0.0000    0.0000 C   0  0  0  0  0  0  0  0  0  0  0  0
    0.0000    0.0000    0.0000 C   0  0  0  0  0  0  0  0  0  0  0  0
    0.0000    0.0000    0.0000 C   0  0  0  0  0  0  0  0  0  0  0  0
    0.0000    0.0000    0.0000 C   0  0  0  0  0  0  0  0  0  0  0  0
    0.0000    0.0000    0.0000 C   0  0  0  0  0  0  0  0  0  0  0  0
    0.0000    0.0000    0.0000 C   0  0  0  0  0  0  0  0  0  0  0  0
    0.0000    0.0000    0.0000 C   0  0  0  0  0  0  0  0  0  0  0  0
    0.0000    0.0000    0.0000 C   0  0  0  0  0  0  0  0  0  0  0  0
    0.0000    0.0000    0.0000 C   0  0  0  0  0  0  0  0  0  0  0  0
    0.0000    0.0000    0.0000 S   0  0  0  0  0  0  0  0  0  0  0  0
    0.0000    0.0000    0.0000 O   0  0  0  0  0  0  0  0  0  0  0  0
    0.0000    0.0000    0.0000 O   0  0  0  0  0  0  0  0  0  0  0  0
    0.0000    0.0000    0.0000 N   0  0  0  0  0  0  0  0  0  0  0  0
  1  2  1  0
  2  3  2  0
  3  4  1  0
  4  5  1  0
  5  6  2  0
  5  7  1  0
  7  8  2  0
  8  9  1  0
  9 10  2  0
 10 11  1  0
 11 12  2  0
 12 13  1  0
 13 14  2  0
 14 15  1  0
 15 16  2  0
  4 17  1  0
 17 18  2  0
 18 19  1  0
 19 20  2  0
 20 21  1  0
 21 22  2  0
 20 23  1  0
 23 24  2  0
 23 25  2  0
 23 26  1  0
  7  2  1  0
 16 11  1  0
 22 17  1  0
M  END
>  <pIC50>  (498) 
7.48

>  <ChEMBL_ID>  (498) 
CHEMBL2392428

>  <document_journal>  (498) 
Bioorg. Med. Chem. Lett.

>  <bao_endpoint>  (498) 
BAO_0000190

>  <potential_duplicate>  (498) 
False

>  <uo_units>  (498) 
UO_0000065

>  <canonical_smiles>  (498) 
CC1=NN(C(=O)/C/1=C\C=C\c2ccccc2)c3ccc(cc3)S(=O)(=O)N

>  <parent_molecule_chembl_id>  (498) 
CHEMBL2392428

>  <assay_type>  (498) 
B

>  <src_id>  (498) 
1

>  <ligand_efficiency>  (498) 
{u'le': u'0.39', u'bei': u'20.36', u'sei': u'7.39', u'lle': u'5.27'}

>  <standard_flag>  (498) 
True

>  <molecule_chembl_id>  (498) 
CHEMBL2392428

>  <target_organism>  (498) 
Homo sapiens

>  <standard_units>  (498) 
nM

>  <record_id>  (498) 
1900506

>  <document_chembl_id>  (498) 
CHEMBL2390891

>  <bao_format>  (498) 
BAO_0000219

>  <data_validity_description>  (498) 
None

>  <activity_id>  (498) 
13344582

>  <standard_type>  (498) 
IC50

>  <target_chembl_id>  (498) 
CHEMBL205

>  <data_validity_comment>  (498) 
None

>  <published_value>  (498) 
33.13

>  <document_year>  (498) 
2013

>  <target_pref_name>  (498) 
Carbonic anhydrase II

>  <assay_chembl_id>  (498) 
CHEMBL2394010

>  <standard_relation>  (498) 
=

>  <assay_description>  (498) 
Inhibition of full length carbonic anhydrase-2 in human erythrocytes

>  <published_relation>  (498) 
=

>  <standard_value>  (498) 
33.13

>  <qudt_units>  (498) 
http://www.openphacts.org/units/Nanomolar

>  <target_tax_id>  (498) 
9606

>  <bao_label>  (498) 
cell-based format

>  <published_units>  (498) 
nM

>  <pchembl_value>  (498) 
7.48

>  <published_type>  (498) 
IC50

>  <activity_comment>  (498) 
None

$$$$

     RDKit          

 24 26  0  0  0  0  0  0  0  0999 V2000
    0.0000    0.0000    0.0000 N   0  0  0  0  0  0  0  0  0  0  0  0
    0.0000    0.0000    0.0000 S   0  0  0  0  0  0  0  0  0  0  0  0
    0.0000    0.0000    0.0000 O   0  0  0  0  0  0  0  0  0  0  0  0
    0.0000    0.0000    0.0000 O   0  0  0  0  0  0  0  0  0  0  0  0
    0.0000    0.0000    0.0000 C   0  0  0  0  0  0  0  0  0  0  0  0
    0.0000    0.0000    0.0000 C   0  0  0  0  0  0  0  0  0  0  0  0
    0.0000    0.0000    0.0000 C   0  0  0  0  0  0  0  0  0  0  0  0
    0.0000    0.0000    0.0000 C   0  0  0  0  0  0  0  0  0  0  0  0
    0.0000    0.0000    0.0000 C   0  0  0  0  0  0  0  0  0  0  0  0
    0.0000    0.0000    0.0000 C   0  0  0  0  0  0  0  0  0  0  0  0
    0.0000    0.0000    0.0000 N   0  0  0  0  0  0  0  0  0  0  0  0
    0.0000    0.0000    0.0000 C   0  0  0  0  0  0  0  0  0  0  0  0
    0.0000    0.0000    0.0000 C   0  0  0  0  0  0  0  0  0  0  0  0
    0.0000    0.0000    0.0000 C   0  0  0  0  0  0  0  0  0  0  0  0
    0.0000    0.0000    0.0000 C   0  0  0  0  0  0  0  0  0  0  0  0
    0.0000    0.0000    0.0000 C   0  0  0  0  0  0  0  0  0  0  0  0
    0.0000    0.0000    0.0000 C   0  0  0  0  0  0  0  0  0  0  0  0
    0.0000    0.0000    0.0000 C   0  0  0  0  0  0  0  0  0  0  0  0
    0.0000    0.0000    0.0000 C   0  0  0  0  0  0  0  0  0  0  0  0
    0.0000    0.0000    0.0000 C   0  0  0  0  0  0  0  0  0  0  0  0
    0.0000    0.0000    0.0000 C   0  0  0  0  0  0  0  0  0  0  0  0
    0.0000    0.0000    0.0000 C   0  0  0  0  0  0  0  0  0  0  0  0
    0.0000    0.0000    0.0000 C   0  0  0  0  0  0  0  0  0  0  0  0
    0.0000    0.0000    0.0000 C   0  0  0  0  0  0  0  0  0  0  0  0
  1  2  1  0
  2  3  2  0
  2  4  2  0
  2  5  1  0
  5  6  2  0
  6  7  1  0
  7  8  2  0
  8  9  1  0
  9 10  1  0
 10 11  1  0
 11 12  1  0
 12 13  1  0
 13 14  2  0
 14 15  1  0
 15 16  2  0
 16 17  1  0
 17 18  2  0
 18 19  1  0
 19 20  2  0
 20 21  1  0
 21 22  2  0
  8 23  1  0
 23 24  2  0
 24  5  1  0
 22 13  1  0
 22 17  1  0
M  END
>  <pIC50>  (499) 
6.82

>  <ChEMBL_ID>  (499) 
CHEMBL2392427

>  <document_journal>  (499) 
Bioorg. Med. Chem. Lett.

>  <bao_endpoint>  (499) 
BAO_0000190

>  <potential_duplicate>  (499) 
False

>  <uo_units>  (499) 
UO_0000065

>  <canonical_smiles>  (499) 
NS(=O)(=O)c1ccc(CCNCc2cccc3ccccc23)cc1

>  <parent_molecule_chembl_id>  (499) 
CHEMBL2392427

>  <assay_type>  (499) 
B

>  <src_id>  (499) 
1

>  <ligand_efficiency>  (499) 
{u'le': u'0.39', u'bei': u'20.02', u'sei': u'8.46', u'lle': u'3.92'}

>  <standard_flag>  (499) 
True

>  <molecule_chembl_id>  (499) 
CHEMBL2392427

>  <target_organism>  (499) 
Homo sapiens

>  <standard_units>  (499) 
nM

>  <record_id>  (499) 
1900505

>  <document_chembl_id>  (499) 
CHEMBL2390891

>  <bao_format>  (499) 
BAO_0000219

>  <data_validity_description>  (499) 
None

>  <activity_id>  (499) 
13344583

>  <standard_type>  (499) 
IC50

>  <target_chembl_id>  (499) 
CHEMBL205

>  <data_validity_comment>  (499) 
None

>  <published_value>  (499) 
153.18

>  <document_year>  (499) 
2013

>  <target_pref_name>  (499) 
Carbonic anhydrase II

>  <assay_chembl_id>  (499) 
CHEMBL2394010

>  <standard_relation>  (499) 
=

>  <assay_description>  (499) 
Inhibition of full length carbonic anhydrase-2 in human erythrocytes

>  <published_relation>  (499) 
=

>  <standard_value>  (499) 
153.18

>  <qudt_units>  (499) 
http://www.openphacts.org/units/Nanomolar

>  <target_tax_id>  (499) 
9606

>  <bao_label>  (499) 
cell-based format

>  <published_units>  (499) 
nM

>  <pchembl_value>  (499) 
6.82

>  <published_type>  (499) 
IC50

>  <activity_comment>  (499) 
None

$$$$

     RDKit          

 30 33  0  0  0  0  0  0  0  0999 V2000
    0.0000    0.0000    0.0000 C   0  0  0  0  0  0  0  0  0  0  0  0
    0.0000    0.0000    0.0000 C   0  0  0  0  0  0  0  0  0  0  0  0
    0.0000    0.0000    0.0000 C   0  0  0  0  0  0  0  0  0  0  0  0
    0.0000    0.0000    0.0000 C   0  0  0  0  0  0  0  0  0  0  0  0
    0.0000    0.0000    0.0000 C   0  0  0  0  0  0  0  0  0  0  0  0
    0.0000    0.0000    0.0000 C   0  0  0  0  0  0  0  0  0  0  0  0
    0.0000    0.0000    0.0000 C   0  0  0  0  0  0  0  0  0  0  0  0
    0.0000    0.0000    0.0000 N   0  0  0  0  0  0  0  0  0  0  0  0
    0.0000    0.0000    0.0000 N   0  0  0  0  0  0  0  0  0  0  0  0
    0.0000    0.0000    0.0000 C   0  0  0  0  0  0  0  0  0  0  0  0
    0.0000    0.0000    0.0000 O   0  0  0  0  0  0  0  0  0  0  0  0
    0.0000    0.0000    0.0000 C   0  0  0  0  0  0  0  0  0  0  0  0
    0.0000    0.0000    0.0000 C   0  0  0  0  0  0  0  0  0  0  0  0
    0.0000    0.0000    0.0000 C   0  0  0  0  0  0  0  0  0  0  0  0
    0.0000    0.0000    0.0000 C   0  0  0  0  0  0  0  0  0  0  0  0
    0.0000    0.0000    0.0000 C   0  0  0  0  0  0  0  0  0  0  0  0
    0.0000    0.0000    0.0000 C   0  0  0  0  0  0  0  0  0  0  0  0
    0.0000    0.0000    0.0000 N   0  0  0  0  0  0  0  0  0  0  0  0
    0.0000    0.0000    0.0000 C   0  0  0  0  0  0  0  0  0  0  0  0
    0.0000    0.0000    0.0000 C   0  0  0  0  0  0  0  0  0  0  0  0
    0.0000    0.0000    0.0000 C   0  0  0  0  0  0  0  0  0  0  0  0
    0.0000    0.0000    0.0000 C   0  0  0  0  0  0  0  0  0  0  0  0
    0.0000    0.0000    0.0000 C   0  0  0  0  0  0  0  0  0  0  0  0
    0.0000    0.0000    0.0000 C   0  0  0  0  0  0  0  0  0  0  0  0
    0.0000    0.0000    0.0000 S   0  0  0  0  0  0  0  0  0  0  0  0
    0.0000    0.0000    0.0000 O   0  0  0  0  0  0  0  0  0  0  0  0
    0.0000    0.0000    0.0000 O   0  0  0  0  0  0  0  0  0  0  0  0
    0.0000    0.0000    0.0000 N   0  0  0  0  0  0  0  0  0  0  0  0
    0.0000    0.0000    0.0000 C   0  0  0  0  0  0  0  0  0  0  0  0
    0.0000    0.0000    0.0000 O   0  0  0  0  0  0  0  0  0  0  0  0
  1  2  1  0
  2  3  2  0
  3  4  1  0
  4  5  2  0
  5  6  1  0
  6  7  2  0
  5  8  1  0
  8  9  1  0
  9 10  1  0
 10 11  2  0
 10 12  1  0
 12 13  2  0
 13 14  1  0
 14 15  2  0
 15 16  1  0
 16 17  2  0
 17 18  1  0
 18 19  1  0
 19 20  2  0
 20 21  1  0
 21 22  2  0
 22 23  1  0
 23 24  2  0
 22 25  1  0
 25 26  2  0
 25 27  2  0
 25 28  1  0
 12 29  1  0
 29 30  2  0
  7  2  1  0
 29  8  1  0
 18 14  1  0
 24 19  1  0
M  END
>  <pIC50>  (500) 
7.57

>  <ChEMBL_ID>  (500) 
CHEMBL2392426

>  <document_journal>  (500) 
Bioorg. Med. Chem. Lett.

>  <bao_endpoint>  (500) 
BAO_0000190

>  <potential_duplicate>  (500) 
False

>  <uo_units>  (500) 
UO_0000065

>  <canonical_smiles>  (500) 
Cc1ccc(cc1)N2NC(=O)\C(=C\c3cccn3c4ccc(cc4)S(=O)(=O)N)\C2=O

>  <parent_molecule_chembl_id>  (500) 
CHEMBL2392426

>  <assay_type>  (500) 
B

>  <src_id>  (500) 
1

>  <ligand_efficiency>  (500) 
{u'le': u'0.34', u'bei': u'17.91', u'sei': u'6.16', u'lle': u'4.96'}

>  <standard_flag>  (500) 
True

>  <molecule_chembl_id>  (500) 
CHEMBL2392426

>  <target_organism>  (500) 
Homo sapiens

>  <standard_units>  (500) 
nM

>  <record_id>  (500) 
1900504

>  <document_chembl_id>  (500) 
CHEMBL2390891

>  <bao_format>  (500) 
BAO_0000219

>  <data_validity_description>  (500) 
None

>  <activity_id>  (500) 
13344584

>  <standard_type>  (500) 
IC50

>  <target_chembl_id>  (500) 
CHEMBL205

>  <data_validity_comment>  (500) 
None

>  <published_value>  (500) 
27.16

>  <document_year>  (500) 
2013

>  <target_pref_name>  (500) 
Carbonic anhydrase II

>  <assay_chembl_id>  (500) 
CHEMBL2394010

>  <standard_relation>  (500) 
=

>  <assay_description>  (500) 
Inhibition of full length carbonic anhydrase-2 in human erythrocytes

>  <published_relation>  (500) 
=

>  <standard_value>  (500) 
27.16

>  <qudt_units>  (500) 
http://www.openphacts.org/units/Nanomolar

>  <target_tax_id>  (500) 
9606

>  <bao_label>  (500) 
cell-based format

>  <published_units>  (500) 
nM

>  <pchembl_value>  (500) 
7.57

>  <published_type>  (500) 
IC50

>  <activity_comment>  (500) 
None

$$$$

     RDKit          

 24 25  0  0  0  0  0  0  0  0999 V2000
    0.0000    0.0000    0.0000 N   0  0  0  0  0  0  0  0  0  0  0  0
    0.0000    0.0000    0.0000 S   0  0  0  0  0  0  0  0  0  0  0  0
    0.0000    0.0000    0.0000 O   0  0  0  0  0  0  0  0  0  0  0  0
    0.0000    0.0000    0.0000 O   0  0  0  0  0  0  0  0  0  0  0  0
    0.0000    0.0000    0.0000 C   0  0  0  0  0  0  0  0  0  0  0  0
    0.0000    0.0000    0.0000 C   0  0  0  0  0  0  0  0  0  0  0  0
    0.0000    0.0000    0.0000 C   0  0  0  0  0  0  0  0  0  0  0  0
    0.0000    0.0000    0.0000 C   0  0  0  0  0  0  0  0  0  0  0  0
    0.0000    0.0000    0.0000 O   0  0  0  0  0  0  0  0  0  0  0  0
    0.0000    0.0000    0.0000 N   0  0  0  0  0  0  0  0  0  0  0  0
    0.0000    0.0000    0.0000 C   0  0  0  0  0  0  0  0  0  0  0  0
    0.0000    0.0000    0.0000 C   0  0  0  0  0  0  0  0  0  0  0  0
    0.0000    0.0000    0.0000 O   0  0  0  0  0  0  0  0  0  0  0  0
    0.0000    0.0000    0.0000 C   0  0  0  0  0  0  0  0  0  0  0  0
    0.0000    0.0000    0.0000 C   0  0  0  0  0  0  0  0  0  0  0  0
    0.0000    0.0000    0.0000 C   0  0  0  0  0  0  0  0  0  0  0  0
    0.0000    0.0000    0.0000 C   0  0  0  0  0  0  0  0  0  0  0  0
    0.0000    0.0000    0.0000 C   0  0  0  0  0  0  0  0  0  0  0  0
    0.0000    0.0000    0.0000 C   0  0  0  0  0  0  0  0  0  0  0  0
    0.0000    0.0000    0.0000 C   0  0  0  0  0  0  0  0  0  0  0  0
    0.0000    0.0000    0.0000 Cl  0  0  0  0  0  0  0  0  0  0  0  0
    0.0000    0.0000    0.0000 C   0  0  0  0  0  0  0  0  0  0  0  0
    0.0000    0.0000    0.0000 C   0  0  0  0  0  0  0  0  0  0  0  0
    0.0000    0.0000    0.0000 Cl  0  0  0  0  0  0  0  0  0  0  0  0
  1  2  1  0
  2  3  2  0
  2  4  2  0
  2  5  1  0
  5  6  2  0
  6  7  1  0
  7  8  1  0
  8  9  2  0
  8 10  1  0
 10 11  1  0
 11 12  1  0
 12 13  1  0
 13 14  1  0
 14 15  2  0
 15 16  1  0
 16 17  2  0
 17 18  1  0
 18 19  2  0
  7 20  2  0
 20 21  1  0
 20 22  1  0
 22 23  2  0
 23 24  1  0
 23  5  1  0
 19 14  1  0
M  END
>  <pIC50>  (501) 
7.98

>  <ChEMBL_ID>  (501) 
CHEMBL1387347

>  <document_journal>  (501) 
Bioorg. Med. Chem. Lett.

>  <bao_endpoint>  (501) 
BAO_0000190

>  <potential_duplicate>  (501) 
False

>  <uo_units>  (501) 
UO_0000065

>  <canonical_smiles>  (501) 
NS(=O)(=O)c1cc(C(=O)NCCOc2ccccc2)c(Cl)cc1Cl

>  <parent_molecule_chembl_id>  (501) 
CHEMBL1387347

>  <assay_type>  (501) 
B

>  <src_id>  (501) 
1

>  <ligand_efficiency>  (501) 
{u'le': u'0.45', u'bei': u'20.49', u'sei': u'7.46', u'lle': u'5.28'}

>  <standard_flag>  (501) 
True

>  <molecule_chembl_id>  (501) 
CHEMBL1387347

>  <target_organism>  (501) 
Homo sapiens

>  <standard_units>  (501) 
nM

>  <record_id>  (501) 
1900503

>  <document_chembl_id>  (501) 
CHEMBL2390891

>  <bao_format>  (501) 
BAO_0000219

>  <data_validity_description>  (501) 
None

>  <activity_id>  (501) 
13344585

>  <standard_type>  (501) 
IC50

>  <target_chembl_id>  (501) 
CHEMBL205

>  <data_validity_comment>  (501) 
None

>  <published_value>  (501) 
10.58

>  <document_year>  (501) 
2013

>  <target_pref_name>  (501) 
Carbonic anhydrase II

>  <assay_chembl_id>  (501) 
CHEMBL2394010

>  <standard_relation>  (501) 
=

>  <assay_description>  (501) 
Inhibition of full length carbonic anhydrase-2 in human erythrocytes

>  <published_relation>  (501) 
=

>  <standard_value>  (501) 
10.58

>  <qudt_units>  (501) 
http://www.openphacts.org/units/Nanomolar

>  <target_tax_id>  (501) 
9606

>  <bao_label>  (501) 
cell-based format

>  <published_units>  (501) 
nM

>  <pchembl_value>  (501) 
7.98

>  <published_type>  (501) 
IC50

>  <activity_comment>  (501) 
None

$$$$

     RDKit          

 26 28  0  0  0  0  0  0  0  0999 V2000
    0.0000    0.0000    0.0000 N   0  0  0  0  0  0  0  0  0  0  0  0
    0.0000    0.0000    0.0000 S   0  0  0  0  0  0  0  0  0  0  0  0
    0.0000    0.0000    0.0000 O   0  0  0  0  0  0  0  0  0  0  0  0
    0.0000    0.0000    0.0000 O   0  0  0  0  0  0  0  0  0  0  0  0
    0.0000    0.0000    0.0000 C   0  0  0  0  0  0  0  0  0  0  0  0
    0.0000    0.0000    0.0000 C   0  0  0  0  0  0  0  0  0  0  0  0
    0.0000    0.0000    0.0000 C   0  0  0  0  0  0  0  0  0  0  0  0
    0.0000    0.0000    0.0000 C   0  0  0  0  0  0  0  0  0  0  0  0
    0.0000    0.0000    0.0000 C   0  0  0  0  0  0  0  0  0  0  0  0
    0.0000    0.0000    0.0000 C   0  0  0  0  0  0  0  0  0  0  0  0
    0.0000    0.0000    0.0000 N   0  0  0  0  0  0  0  0  0  0  0  0
    0.0000    0.0000    0.0000 C   0  0  0  0  0  0  0  0  0  0  0  0
    0.0000    0.0000    0.0000 N   0  0  0  0  0  0  0  0  0  0  0  0
    0.0000    0.0000    0.0000 C   0  0  0  0  0  0  0  0  0  0  0  0
    0.0000    0.0000    0.0000 O   0  0  0  0  0  0  0  0  0  0  0  0
    0.0000    0.0000    0.0000 C   0  0  0  0  0  0  0  0  0  0  0  0
    0.0000    0.0000    0.0000 C   0  0  0  0  0  0  0  0  0  0  0  0
    0.0000    0.0000    0.0000 C   0  0  0  0  0  0  0  0  0  0  0  0
    0.0000    0.0000    0.0000 C   0  0  0  0  0  0  0  0  0  0  0  0
    0.0000    0.0000    0.0000 C   0  0  0  0  0  0  0  0  0  0  0  0
    0.0000    0.0000    0.0000 O   0  0  0  0  0  0  0  0  0  0  0  0
    0.0000    0.0000    0.0000 C   0  0  0  0  0  0  0  0  0  0  0  0
    0.0000    0.0000    0.0000 C   0  0  0  0  0  0  0  0  0  0  0  0
    0.0000    0.0000    0.0000 C   0  0  0  0  0  0  0  0  0  0  0  0
    0.0000    0.0000    0.0000 Br  0  0  0  0  0  0  0  0  0  0  0  0
    0.0000    0.0000    0.0000 S   0  0  0  0  0  0  0  0  0  0  0  0
  1  2  1  0
  2  3  2  0
  2  4  2  0
  2  5  1  0
  5  6  2  0
  6  7  1  0
  7  8  2  0
  8  9  1  0
  9 10  2  0
  8 11  1  0
 11 12  2  0
 12 13  1  0
 13 14  1  0
 14 15  2  0
 14 16  1  0
 16 17  2  0
 17 18  1  0
 18 19  2  0
 19 20  1  0
 20 21  1  0
 20 22  2  0
 22 23  1  0
 23 24  2  0
 24 25  1  0
 16 26  1  0
 10  5  1  0
 12 26  1  0
 24 18  1  0
M  END
>  <pIC50>  (502) 
8.03

>  <ChEMBL_ID>  (502) 
CHEMBL2392425

>  <document_journal>  (502) 
Bioorg. Med. Chem. Lett.

>  <bao_endpoint>  (502) 
BAO_0000190

>  <potential_duplicate>  (502) 
False

>  <uo_units>  (502) 
UO_0000065

>  <canonical_smiles>  (502) 
NS(=O)(=O)c1ccc(cc1)\N=C/2\NC(=O)\C(=C\c3cc(O)ccc3Br)\S2

>  <parent_molecule_chembl_id>  (502) 
CHEMBL2392425

>  <assay_type>  (502) 
B

>  <src_id>  (502) 
1

>  <ligand_efficiency>  (502) 
{u'le': u'0.42', u'bei': u'17.68', u'sei': u'5.16', u'lle': u'5.04'}

>  <standard_flag>  (502) 
True

>  <molecule_chembl_id>  (502) 
CHEMBL2392425

>  <target_organism>  (502) 
Homo sapiens

>  <standard_units>  (502) 
nM

>  <record_id>  (502) 
1900502

>  <document_chembl_id>  (502) 
CHEMBL2390891

>  <bao_format>  (502) 
BAO_0000219

>  <data_validity_description>  (502) 
None

>  <activity_id>  (502) 
13344586

>  <standard_type>  (502) 
IC50

>  <target_chembl_id>  (502) 
CHEMBL205

>  <data_validity_comment>  (502) 
None

>  <published_value>  (502) 
9.33

>  <document_year>  (502) 
2013

>  <target_pref_name>  (502) 
Carbonic anhydrase II

>  <assay_chembl_id>  (502) 
CHEMBL2394010

>  <standard_relation>  (502) 
=

>  <assay_description>  (502) 
Inhibition of full length carbonic anhydrase-2 in human erythrocytes

>  <published_relation>  (502) 
=

>  <standard_value>  (502) 
9.33

>  <qudt_units>  (502) 
http://www.openphacts.org/units/Nanomolar

>  <target_tax_id>  (502) 
9606

>  <bao_label>  (502) 
cell-based format

>  <published_units>  (502) 
nM

>  <pchembl_value>  (502) 
8.03

>  <published_type>  (502) 
IC50

>  <activity_comment>  (502) 
None

$$$$

     RDKit          

 30 33  0  0  0  0  0  0  0  0999 V2000
    0.0000    0.0000    0.0000 N   0  0  0  0  0  0  0  0  0  0  0  0
    0.0000    0.0000    0.0000 S   0  0  0  0  0  0  0  0  0  0  0  0
    0.0000    0.0000    0.0000 O   0  0  0  0  0  0  0  0  0  0  0  0
    0.0000    0.0000    0.0000 O   0  0  0  0  0  0  0  0  0  0  0  0
    0.0000    0.0000    0.0000 C   0  0  0  0  0  0  0  0  0  0  0  0
    0.0000    0.0000    0.0000 C   0  0  0  0  0  0  0  0  0  0  0  0
    0.0000    0.0000    0.0000 C   0  0  0  0  0  0  0  0  0  0  0  0
    0.0000    0.0000    0.0000 C   0  0  0  0  0  0  0  0  0  0  0  0
    0.0000    0.0000    0.0000 C   0  0  0  0  0  0  0  0  0  0  0  0
    0.0000    0.0000    0.0000 C   0  0  0  0  0  0  0  0  0  0  0  0
    0.0000    0.0000    0.0000 N   0  0  0  0  0  0  0  0  0  0  0  0
    0.0000    0.0000    0.0000 C   0  0  0  0  0  0  0  0  0  0  0  0
    0.0000    0.0000    0.0000 C   0  0  0  0  0  0  0  0  0  0  0  0
    0.0000    0.0000    0.0000 C   0  0  0  0  0  0  0  0  0  0  0  0
    0.0000    0.0000    0.0000 C   0  0  0  0  0  0  0  0  0  0  0  0
    0.0000    0.0000    0.0000 C   0  0  0  0  0  0  0  0  0  0  0  0
    0.0000    0.0000    0.0000 C   0  0  0  0  0  0  0  0  0  0  0  0
    0.0000    0.0000    0.0000 C   0  0  0  0  0  0  0  0  0  0  0  0
    0.0000    0.0000    0.0000 O   0  0  0  0  0  0  0  0  0  0  0  0
    0.0000    0.0000    0.0000 N   0  0  0  0  0  0  0  0  0  0  0  0
    0.0000    0.0000    0.0000 N   0  0  0  0  0  0  0  0  0  0  0  0
    0.0000    0.0000    0.0000 C   0  0  0  0  0  0  0  0  0  0  0  0
    0.0000    0.0000    0.0000 O   0  0  0  0  0  0  0  0  0  0  0  0
    0.0000    0.0000    0.0000 C   0  0  0  0  0  0  0  0  0  0  0  0
    0.0000    0.0000    0.0000 C   0  0  0  0  0  0  0  0  0  0  0  0
    0.0000    0.0000    0.0000 C   0  0  0  0  0  0  0  0  0  0  0  0
    0.0000    0.0000    0.0000 C   0  0  0  0  0  0  0  0  0  0  0  0
    0.0000    0.0000    0.0000 F   0  0  0  0  0  0  0  0  0  0  0  0
    0.0000    0.0000    0.0000 C   0  0  0  0  0  0  0  0  0  0  0  0
    0.0000    0.0000    0.0000 C   0  0  0  0  0  0  0  0  0  0  0  0
  1  2  1  0
  2  3  2  0
  2  4  2  0
  2  5  1  0
  5  6  2  0
  6  7  1  0
  7  8  2  0
  8  9  1  0
  9 10  2  0
  8 11  1  0
 11 12  1  0
 12 13  2  0
 13 14  1  0
 14 15  2  0
 15 16  1  0
 16 17  2  0
 17 18  1  0
 18 19  2  0
 18 20  1  0
 20 21  1  0
 21 22  1  0
 22 23  2  0
 21 24  1  0
 24 25  2  0
 25 26  1  0
 26 27  2  0
 27 28  1  0
 27 29  1  0
 29 30  2  0
 10  5  1  0
 15 11  1  0
 17 22  1  0
 30 24  1  0
M  END
>  <pIC50>  (503) 
7.38

>  <ChEMBL_ID>  (503) 
CHEMBL2392424

>  <document_journal>  (503) 
Bioorg. Med. Chem. Lett.

>  <bao_endpoint>  (503) 
BAO_0000190

>  <potential_duplicate>  (503) 
False

>  <uo_units>  (503) 
UO_0000065

>  <canonical_smiles>  (503) 
NS(=O)(=O)c1ccc(cc1)n2cccc2\C=C/3\C(=O)NN(C3=O)c4ccc(F)cc4

>  <parent_molecule_chembl_id>  (503) 
CHEMBL2392424

>  <assay_type>  (503) 
B

>  <src_id>  (503) 
1

>  <ligand_efficiency>  (503) 
{u'le': u'0.34', u'bei': u'17.3', u'sei': u'6', u'lle': u'5.05'}

>  <standard_flag>  (503) 
True

>  <molecule_chembl_id>  (503) 
CHEMBL2392424

>  <target_organism>  (503) 
Homo sapiens

>  <standard_units>  (503) 
nM

>  <record_id>  (503) 
1900501

>  <document_chembl_id>  (503) 
CHEMBL2390891

>  <bao_format>  (503) 
BAO_0000219

>  <data_validity_description>  (503) 
None

>  <activity_id>  (503) 
13344587

>  <standard_type>  (503) 
IC50

>  <target_chembl_id>  (503) 
CHEMBL205

>  <data_validity_comment>  (503) 
None

>  <published_value>  (503) 
41.97

>  <document_year>  (503) 
2013

>  <target_pref_name>  (503) 
Carbonic anhydrase II

>  <assay_chembl_id>  (503) 
CHEMBL2394010

>  <standard_relation>  (503) 
=

>  <assay_description>  (503) 
Inhibition of full length carbonic anhydrase-2 in human erythrocytes

>  <published_relation>  (503) 
=

>  <standard_value>  (503) 
41.97

>  <qudt_units>  (503) 
http://www.openphacts.org/units/Nanomolar

>  <target_tax_id>  (503) 
9606

>  <bao_label>  (503) 
cell-based format

>  <published_units>  (503) 
nM

>  <pchembl_value>  (503) 
7.38

>  <published_type>  (503) 
IC50

>  <activity_comment>  (503) 
None

$$$$

     RDKit          

 22 23  0  0  0  0  0  0  0  0999 V2000
    0.0000    0.0000    0.0000 N   0  0  0  0  0  0  0  0  0  0  0  0
    0.0000    0.0000    0.0000 S   0  0  0  0  0  0  0  0  0  0  0  0
    0.0000    0.0000    0.0000 O   0  0  0  0  0  0  0  0  0  0  0  0
    0.0000    0.0000    0.0000 O   0  0  0  0  0  0  0  0  0  0  0  0
    0.0000    0.0000    0.0000 C   0  0  0  0  0  0  0  0  0  0  0  0
    0.0000    0.0000    0.0000 C   0  0  0  0  0  0  0  0  0  0  0  0
    0.0000    0.0000    0.0000 C   0  0  0  0  0  0  0  0  0  0  0  0
    0.0000    0.0000    0.0000 C   0  0  0  0  0  0  0  0  0  0  0  0
    0.0000    0.0000    0.0000 N   0  0  0  0  0  0  0  0  0  0  0  0
    0.0000    0.0000    0.0000 C   0  0  0  0  0  0  0  0  0  0  0  0
    0.0000    0.0000    0.0000 S   0  0  0  0  0  0  0  0  0  0  0  0
    0.0000    0.0000    0.0000 N   0  0  0  0  0  0  0  0  0  0  0  0
    0.0000    0.0000    0.0000 C   0  0  0  0  0  0  0  0  0  0  0  0
    0.0000    0.0000    0.0000 O   0  0  0  0  0  0  0  0  0  0  0  0
    0.0000    0.0000    0.0000 C   0  0  0  0  0  0  0  0  0  0  0  0
    0.0000    0.0000    0.0000 C   0  0  0  0  0  0  0  0  0  0  0  0
    0.0000    0.0000    0.0000 C   0  0  0  0  0  0  0  0  0  0  0  0
    0.0000    0.0000    0.0000 C   0  0  0  0  0  0  0  0  0  0  0  0
    0.0000    0.0000    0.0000 C   0  0  0  0  0  0  0  0  0  0  0  0
    0.0000    0.0000    0.0000 C   0  0  0  0  0  0  0  0  0  0  0  0
    0.0000    0.0000    0.0000 C   0  0  0  0  0  0  0  0  0  0  0  0
    0.0000    0.0000    0.0000 C   0  0  0  0  0  0  0  0  0  0  0  0
  1  2  1  0
  2  3  2  0
  2  4  2  0
  2  5  1  0
  5  6  2  0
  6  7  1  0
  7  8  2  0
  8  9  1  0
  9 10  1  0
 10 11  2  0
 10 12  1  0
 12 13  1  0
 13 14  2  0
 13 15  1  0
 15 16  2  0
 16 17  1  0
 17 18  2  0
 18 19  1  0
 19 20  2  0
  8 21  1  0
 21 22  2  0
 22  5  1  0
 20 15  1  0
M  END
>  <pIC50>  (504) 
7.22

>  <ChEMBL_ID>  (504) 
CHEMBL2392423

>  <document_journal>  (504) 
Bioorg. Med. Chem. Lett.

>  <bao_endpoint>  (504) 
BAO_0000190

>  <potential_duplicate>  (504) 
False

>  <uo_units>  (504) 
UO_0000065

>  <canonical_smiles>  (504) 
NS(=O)(=O)c1ccc(NC(=S)NC(=O)c2ccccc2)cc1

>  <parent_molecule_chembl_id>  (504) 
CHEMBL2392423

>  <assay_type>  (504) 
B

>  <src_id>  (504) 
1

>  <ligand_efficiency>  (504) 
{u'le': u'0.45', u'bei': u'21.51', u'sei': u'5.09', u'lle': u'4.75'}

>  <standard_flag>  (504) 
True

>  <molecule_chembl_id>  (504) 
CHEMBL2392423

>  <target_organism>  (504) 
Homo sapiens

>  <standard_units>  (504) 
nM

>  <record_id>  (504) 
1900500

>  <document_chembl_id>  (504) 
CHEMBL2390891

>  <bao_format>  (504) 
BAO_0000219

>  <data_validity_description>  (504) 
None

>  <activity_id>  (504) 
13344588

>  <standard_type>  (504) 
IC50

>  <target_chembl_id>  (504) 
CHEMBL205

>  <data_validity_comment>  (504) 
None

>  <published_value>  (504) 
60.93

>  <document_year>  (504) 
2013

>  <target_pref_name>  (504) 
Carbonic anhydrase II

>  <assay_chembl_id>  (504) 
CHEMBL2394010

>  <standard_relation>  (504) 
=

>  <assay_description>  (504) 
Inhibition of full length carbonic anhydrase-2 in human erythrocytes

>  <published_relation>  (504) 
=

>  <standard_value>  (504) 
60.93

>  <qudt_units>  (504) 
http://www.openphacts.org/units/Nanomolar

>  <target_tax_id>  (504) 
9606

>  <bao_label>  (504) 
cell-based format

>  <published_units>  (504) 
nM

>  <pchembl_value>  (504) 
7.22

>  <published_type>  (504) 
IC50

>  <activity_comment>  (504) 
None

$$$$

     RDKit          

 32 35  0  0  0  0  0  0  0  0999 V2000
    0.0000    0.0000    0.0000 C   0  0  0  0  0  0  0  0  0  0  0  0
    0.0000    0.0000    0.0000 C   0  0  0  0  0  0  0  0  0  0  0  0
    0.0000    0.0000    0.0000 C   0  0  0  0  0  0  0  0  0  0  0  0
    0.0000    0.0000    0.0000 C   0  0  0  0  0  0  0  0  0  0  0  0
    0.0000    0.0000    0.0000 C   0  0  0  0  0  0  0  0  0  0  0  0
    0.0000    0.0000    0.0000 O   0  0  0  0  0  0  0  0  0  0  0  0
    0.0000    0.0000    0.0000 C   0  0  0  0  0  0  0  0  0  0  0  0
    0.0000    0.0000    0.0000 O   0  0  0  0  0  0  0  0  0  0  0  0
    0.0000    0.0000    0.0000 C   0  0  0  0  0  0  0  0  0  0  0  0
    0.0000    0.0000    0.0000 C   0  0  0  0  0  0  0  0  0  0  0  0
    0.0000    0.0000    0.0000 Cl  0  0  0  0  0  0  0  0  0  0  0  0
    0.0000    0.0000    0.0000 C   0  0  0  0  0  0  0  0  0  0  0  0
    0.0000    0.0000    0.0000 C   0  0  0  0  0  0  0  0  0  0  0  0
    0.0000    0.0000    0.0000 C   0  0  0  0  0  0  0  0  0  0  0  0
    0.0000    0.0000    0.0000 N   0  0  0  0  0  0  0  0  0  0  0  0
    0.0000    0.0000    0.0000 C   0  0  0  0  0  0  0  0  0  0  0  0
    0.0000    0.0000    0.0000 C   0  0  0  0  0  0  0  0  0  0  0  0
    0.0000    0.0000    0.0000 C   0  0  0  0  0  0  0  0  0  0  0  0
    0.0000    0.0000    0.0000 C   0  0  0  0  0  0  0  0  0  0  0  0
    0.0000    0.0000    0.0000 C   0  0  0  0  0  0  0  0  0  0  0  0
    0.0000    0.0000    0.0000 C   0  0  0  0  0  0  0  0  0  0  0  0
    0.0000    0.0000    0.0000 S   0  0  0  0  0  0  0  0  0  0  0  0
    0.0000    0.0000    0.0000 O   0  0  0  0  0  0  0  0  0  0  0  0
    0.0000    0.0000    0.0000 O   0  0  0  0  0  0  0  0  0  0  0  0
    0.0000    0.0000    0.0000 N   0  0  0  0  0  0  0  0  0  0  0  0
    0.0000    0.0000    0.0000 C   0  0  0  0  0  0  0  0  0  0  0  0
    0.0000    0.0000    0.0000 N   0  0  0  0  0  0  0  0  0  0  0  0
    0.0000    0.0000    0.0000 C   0  0  0  0  0  0  0  0  0  0  0  0
    0.0000    0.0000    0.0000 C   0  0  0  0  0  0  0  0  0  0  0  0
    0.0000    0.0000    0.0000 C   0  0  0  0  0  0  0  0  0  0  0  0
    0.0000    0.0000    0.0000 C   0  0  0  0  0  0  0  0  0  0  0  0
    0.0000    0.0000    0.0000 N   0  0  0  0  0  0  0  0  0  0  0  0
  1  2  1  0
  2  3  2  0
  3  4  1  0
  4  5  2  0
  5  6  1  0
  6  7  1  0
  7  8  2  0
  7  9  1  0
  9 10  2  0
 10 11  1  0
 10 12  1  0
 12 13  2  0
  9 14  1  0
 14 15  2  0
 15 16  1  0
 16 17  2  0
 17 18  1  0
 18 19  2  0
 19 20  1  0
 20 21  2  0
 19 22  1  0
 22 23  2  0
 22 24  2  0
 22 25  1  0
 25 26  1  0
 26 27  2  0
 27 28  1  0
 28 29  2  0
 29 30  1  0
 30 31  1  0
 30 32  2  0
 13  2  1  0
 12  5  1  0
 21 16  1  0
 32 26  1  0
M  END
>  <pIC50>  (505) 
7.22

>  <ChEMBL_ID>  (505) 
CHEMBL2408073

>  <document_journal>  (505) 
Eur. J. Med. Chem.

>  <bao_endpoint>  (505) 
BAO_0000190

>  <potential_duplicate>  (505) 
False

>  <uo_units>  (505) 
UO_0000065

>  <canonical_smiles>  (505) 
Cc1ccc2OC(=O)C(=C(Cl)c2c1)\C=N\c3ccc(cc3)S(=O)(=O)Nc4nccc(C)n4

>  <parent_molecule_chembl_id>  (505) 
CHEMBL2408073

>  <assay_type>  (505) 
B

>  <src_id>  (505) 
1

>  <ligand_efficiency>  (505) 
{u'le': u'0.31', u'bei': u'15.39', u'sei': u'6.06', u'lle': u'3.49'}

>  <standard_flag>  (505) 
True

>  <molecule_chembl_id>  (505) 
CHEMBL2408073

>  <target_organism>  (505) 
Homo sapiens

>  <standard_units>  (505) 
nM

>  <record_id>  (505) 
1908410

>  <document_chembl_id>  (505) 
CHEMBL2407072

>  <bao_format>  (505) 
BAO_0000357

>  <data_validity_description>  (505) 
None

>  <activity_id>  (505) 
13393750

>  <standard_type>  (505) 
IC50

>  <target_chembl_id>  (505) 
CHEMBL205

>  <data_validity_comment>  (505) 
None

>  <published_value>  (505) 
0.061

>  <document_year>  (505) 
2013

>  <target_pref_name>  (505) 
Carbonic anhydrase II

>  <assay_chembl_id>  (505) 
CHEMBL2411710

>  <standard_relation>  (505) 
=

>  <assay_description>  (505) 
Inhibition of human recombinant CA2 using 4-nitrophenylacetate as substrate preincubated for 15 mins by stopped-flow CO2 hydration assay

>  <published_relation>  (505) 
=

>  <standard_value>  (505) 
61

>  <qudt_units>  (505) 
http://www.openphacts.org/units/Nanomolar

>  <target_tax_id>  (505) 
9606

>  <bao_label>  (505) 
single protein format

>  <published_units>  (505) 
uM

>  <pchembl_value>  (505) 
7.22

>  <published_type>  (505) 
IC50

>  <activity_comment>  (505) 
None

$$$$

     RDKit          

 31 34  0  0  0  0  0  0  0  0999 V2000
    0.0000    0.0000    0.0000 C   0  0  0  0  0  0  0  0  0  0  0  0
    0.0000    0.0000    0.0000 C   0  0  0  0  0  0  0  0  0  0  0  0
    0.0000    0.0000    0.0000 O   0  0  0  0  0  0  0  0  0  0  0  0
    0.0000    0.0000    0.0000 N   0  0  0  0  0  0  0  0  0  0  0  0
    0.0000    0.0000    0.0000 C   0  0  0  0  0  0  0  0  0  0  0  0
    0.0000    0.0000    0.0000 N   0  0  0  0  0  0  0  0  0  0  0  0
    0.0000    0.0000    0.0000 S   0  0  0  0  0  0  0  0  0  0  0  0
    0.0000    0.0000    0.0000 O   0  0  0  0  0  0  0  0  0  0  0  0
    0.0000    0.0000    0.0000 O   0  0  0  0  0  0  0  0  0  0  0  0
    0.0000    0.0000    0.0000 C   0  0  0  0  0  0  0  0  0  0  0  0
    0.0000    0.0000    0.0000 C   0  0  0  0  0  0  0  0  0  0  0  0
    0.0000    0.0000    0.0000 C   0  0  0  0  0  0  0  0  0  0  0  0
    0.0000    0.0000    0.0000 C   0  0  0  0  0  0  0  0  0  0  0  0
    0.0000    0.0000    0.0000 C   0  0  0  0  0  0  0  0  0  0  0  0
    0.0000    0.0000    0.0000 C   0  0  0  0  0  0  0  0  0  0  0  0
    0.0000    0.0000    0.0000 N   0  0  0  0  0  0  0  0  0  0  0  0
    0.0000    0.0000    0.0000 C   0  0  0  0  0  0  0  0  0  0  0  0
    0.0000    0.0000    0.0000 C   0  0  0  0  0  0  0  0  0  0  0  0
    0.0000    0.0000    0.0000 C   0  0  0  0  0  0  0  0  0  0  0  0
    0.0000    0.0000    0.0000 Cl  0  0  0  0  0  0  0  0  0  0  0  0
    0.0000    0.0000    0.0000 C   0  0  0  0  0  0  0  0  0  0  0  0
    0.0000    0.0000    0.0000 C   0  0  0  0  0  0  0  0  0  0  0  0
    0.0000    0.0000    0.0000 C   0  0  0  0  0  0  0  0  0  0  0  0
    0.0000    0.0000    0.0000 C   0  0  0  0  0  0  0  0  0  0  0  0
    0.0000    0.0000    0.0000 C   0  0  0  0  0  0  0  0  0  0  0  0
    0.0000    0.0000    0.0000 C   0  0  0  0  0  0  0  0  0  0  0  0
    0.0000    0.0000    0.0000 C   0  0  0  0  0  0  0  0  0  0  0  0
    0.0000    0.0000    0.0000 O   0  0  0  0  0  0  0  0  0  0  0  0
    0.0000    0.0000    0.0000 C   0  0  0  0  0  0  0  0  0  0  0  0
    0.0000    0.0000    0.0000 O   0  0  0  0  0  0  0  0  0  0  0  0
    0.0000    0.0000    0.0000 C   0  0  0  0  0  0  0  0  0  0  0  0
  1  2  1  0
  2  3  1  0
  3  4  1  0
  4  5  2  0
  5  6  1  0
  6  7  1  0
  7  8  2  0
  7  9  2  0
  7 10  1  0
 10 11  2  0
 11 12  1  0
 12 13  2  0
 13 14  1  0
 14 15  2  0
 13 16  1  0
 16 17  2  0
 17 18  1  0
 18 19  2  0
 19 20  1  0
 19 21  1  0
 21 22  2  0
 22 23  1  0
 23 24  1  0
 23 25  2  0
 25 26  1  0
 26 27  2  0
 27 28  1  0
 28 29  1  0
 29 30  2  0
  5 31  1  0
 31  2  2  0
 15 10  1  0
 29 18  1  0
 27 21  1  0
M  END
>  <pIC50>  (506) 
6.66

>  <ChEMBL_ID>  (506) 
CHEMBL2408090

>  <document_journal>  (506) 
Eur. J. Med. Chem.

>  <bao_endpoint>  (506) 
BAO_0000190

>  <potential_duplicate>  (506) 
False

>  <uo_units>  (506) 
UO_0000065

>  <canonical_smiles>  (506) 
Cc1onc(NS(=O)(=O)c2ccc(cc2)\N=C\C3=C(Cl)c4cc(C)ccc4OC3=O)c1

>  <parent_molecule_chembl_id>  (506) 
CHEMBL2408090

>  <assay_type>  (506) 
B

>  <src_id>  (506) 
1

>  <ligand_efficiency>  (506) 
{u'le': u'0.29', u'bei': u'14.55', u'sei': u'5.59', u'lle': u'2.83'}

>  <standard_flag>  (506) 
True

>  <molecule_chembl_id>  (506) 
CHEMBL2408090

>  <target_organism>  (506) 
Homo sapiens

>  <standard_units>  (506) 
nM

>  <record_id>  (506) 
1908429

>  <document_chembl_id>  (506) 
CHEMBL2407072

>  <bao_format>  (506) 
BAO_0000357

>  <data_validity_description>  (506) 
None

>  <activity_id>  (506) 
13393751

>  <standard_type>  (506) 
IC50

>  <target_chembl_id>  (506) 
CHEMBL205

>  <data_validity_comment>  (506) 
None

>  <published_value>  (506) 
0.217

>  <document_year>  (506) 
2013

>  <target_pref_name>  (506) 
Carbonic anhydrase II

>  <assay_chembl_id>  (506) 
CHEMBL2411710

>  <standard_relation>  (506) 
=

>  <assay_description>  (506) 
Inhibition of human recombinant CA2 using 4-nitrophenylacetate as substrate preincubated for 15 mins by stopped-flow CO2 hydration assay

>  <published_relation>  (506) 
=

>  <standard_value>  (506) 
217

>  <qudt_units>  (506) 
http://www.openphacts.org/units/Nanomolar

>  <target_tax_id>  (506) 
9606

>  <bao_label>  (506) 
single protein format

>  <published_units>  (506) 
uM

>  <pchembl_value>  (506) 
6.66

>  <published_type>  (506) 
IC50

>  <activity_comment>  (506) 
None

$$$$

     RDKit          

 33 36  0  0  0  0  0  0  0  0999 V2000
    0.0000    0.0000    0.0000 C   0  0  0  0  0  0  0  0  0  0  0  0
    0.0000    0.0000    0.0000 C   0  0  0  0  0  0  0  0  0  0  0  0
    0.0000    0.0000    0.0000 C   0  0  0  0  0  0  0  0  0  0  0  0
    0.0000    0.0000    0.0000 C   0  0  0  0  0  0  0  0  0  0  0  0
    0.0000    0.0000    0.0000 C   0  0  0  0  0  0  0  0  0  0  0  0
    0.0000    0.0000    0.0000 O   0  0  0  0  0  0  0  0  0  0  0  0
    0.0000    0.0000    0.0000 C   0  0  0  0  0  0  0  0  0  0  0  0
    0.0000    0.0000    0.0000 O   0  0  0  0  0  0  0  0  0  0  0  0
    0.0000    0.0000    0.0000 C   0  0  0  0  0  0  0  0  0  0  0  0
    0.0000    0.0000    0.0000 C   0  0  0  0  0  0  0  0  0  0  0  0
    0.0000    0.0000    0.0000 Cl  0  0  0  0  0  0  0  0  0  0  0  0
    0.0000    0.0000    0.0000 C   0  0  0  0  0  0  0  0  0  0  0  0
    0.0000    0.0000    0.0000 C   0  0  0  0  0  0  0  0  0  0  0  0
    0.0000    0.0000    0.0000 C   0  0  0  0  0  0  0  0  0  0  0  0
    0.0000    0.0000    0.0000 N   0  0  0  0  0  0  0  0  0  0  0  0
    0.0000    0.0000    0.0000 C   0  0  0  0  0  0  0  0  0  0  0  0
    0.0000    0.0000    0.0000 C   0  0  0  0  0  0  0  0  0  0  0  0
    0.0000    0.0000    0.0000 C   0  0  0  0  0  0  0  0  0  0  0  0
    0.0000    0.0000    0.0000 C   0  0  0  0  0  0  0  0  0  0  0  0
    0.0000    0.0000    0.0000 C   0  0  0  0  0  0  0  0  0  0  0  0
    0.0000    0.0000    0.0000 C   0  0  0  0  0  0  0  0  0  0  0  0
    0.0000    0.0000    0.0000 S   0  0  0  0  0  0  0  0  0  0  0  0
    0.0000    0.0000    0.0000 O   0  0  0  0  0  0  0  0  0  0  0  0
    0.0000    0.0000    0.0000 O   0  0  0  0  0  0  0  0  0  0  0  0
    0.0000    0.0000    0.0000 N   0  0  0  0  0  0  0  0  0  0  0  0
    0.0000    0.0000    0.0000 C   0  0  0  0  0  0  0  0  0  0  0  0
    0.0000    0.0000    0.0000 N   0  0  0  0  0  0  0  0  0  0  0  0
    0.0000    0.0000    0.0000 C   0  0  0  0  0  0  0  0  0  0  0  0
    0.0000    0.0000    0.0000 C   0  0  0  0  0  0  0  0  0  0  0  0
    0.0000    0.0000    0.0000 C   0  0  0  0  0  0  0  0  0  0  0  0
    0.0000    0.0000    0.0000 C   0  0  0  0  0  0  0  0  0  0  0  0
    0.0000    0.0000    0.0000 C   0  0  0  0  0  0  0  0  0  0  0  0
    0.0000    0.0000    0.0000 N   0  0  0  0  0  0  0  0  0  0  0  0
  1  2  1  0
  2  3  2  0
  3  4  1  0
  4  5  2  0
  5  6  1  0
  6  7  1  0
  7  8  2  0
  7  9  1  0
  9 10  2  0
 10 11  1  0
 10 12  1  0
 12 13  2  0
  9 14  1  0
 14 15  2  0
 15 16  1  0
 16 17  2  0
 17 18  1  0
 18 19  2  0
 19 20  1  0
 20 21  2  0
 19 22  1  0
 22 23  2  0
 22 24  2  0
 22 25  1  0
 25 26  1  0
 26 27  2  0
 27 28  1  0
 28 29  1  0
 28 30  2  0
 30 31  1  0
 31 32  1  0
 31 33  2  0
 13  2  1  0
 12  5  1  0
 21 16  1  0
 33 26  1  0
M  END
>  <pIC50>  (507) 
6.85

>  <ChEMBL_ID>  (507) 
CHEMBL2408089

>  <document_journal>  (507) 
Eur. J. Med. Chem.

>  <bao_endpoint>  (507) 
BAO_0000190

>  <potential_duplicate>  (507) 
False

>  <uo_units>  (507) 
UO_0000065

>  <canonical_smiles>  (507) 
Cc1ccc2OC(=O)C(=C(Cl)c2c1)\C=N\c3ccc(cc3)S(=O)(=O)Nc4nc(C)cc(C)n4

>  <parent_molecule_chembl_id>  (507) 
CHEMBL2408089

>  <assay_type>  (507) 
B

>  <src_id>  (507) 
1

>  <ligand_efficiency>  (507) 
{u'le': u'0.28', u'bei': u'14.19', u'sei': u'5.76', u'lle': u'2.85'}

>  <standard_flag>  (507) 
True

>  <molecule_chembl_id>  (507) 
CHEMBL2408089

>  <target_organism>  (507) 
Homo sapiens

>  <standard_units>  (507) 
nM

>  <record_id>  (507) 
1908428

>  <document_chembl_id>  (507) 
CHEMBL2407072

>  <bao_format>  (507) 
BAO_0000357

>  <data_validity_description>  (507) 
None

>  <activity_id>  (507) 
13393752

>  <standard_type>  (507) 
IC50

>  <target_chembl_id>  (507) 
CHEMBL205

>  <data_validity_comment>  (507) 
None

>  <published_value>  (507) 
0.141

>  <document_year>  (507) 
2013

>  <target_pref_name>  (507) 
Carbonic anhydrase II

>  <assay_chembl_id>  (507) 
CHEMBL2411710

>  <standard_relation>  (507) 
=

>  <assay_description>  (507) 
Inhibition of human recombinant CA2 using 4-nitrophenylacetate as substrate preincubated for 15 mins by stopped-flow CO2 hydration assay

>  <published_relation>  (507) 
=

>  <standard_value>  (507) 
141

>  <qudt_units>  (507) 
http://www.openphacts.org/units/Nanomolar

>  <target_tax_id>  (507) 
9606

>  <bao_label>  (507) 
single protein format

>  <published_units>  (507) 
uM

>  <pchembl_value>  (507) 
6.85

>  <published_type>  (507) 
IC50

>  <activity_comment>  (507) 
None

$$$$

     RDKit          

 28 30  0  0  0  0  0  0  0  0999 V2000
    0.0000    0.0000    0.0000 C   0  0  0  0  0  0  0  0  0  0  0  0
    0.0000    0.0000    0.0000 C   0  0  0  0  0  0  0  0  0  0  0  0
    0.0000    0.0000    0.0000 C   0  0  0  0  0  0  0  0  0  0  0  0
    0.0000    0.0000    0.0000 C   0  0  0  0  0  0  0  0  0  0  0  0
    0.0000    0.0000    0.0000 C   0  0  0  0  0  0  0  0  0  0  0  0
    0.0000    0.0000    0.0000 O   0  0  0  0  0  0  0  0  0  0  0  0
    0.0000    0.0000    0.0000 C   0  0  0  0  0  0  0  0  0  0  0  0
    0.0000    0.0000    0.0000 O   0  0  0  0  0  0  0  0  0  0  0  0
    0.0000    0.0000    0.0000 C   0  0  0  0  0  0  0  0  0  0  0  0
    0.0000    0.0000    0.0000 C   0  0  0  0  0  0  0  0  0  0  0  0
    0.0000    0.0000    0.0000 Cl  0  0  0  0  0  0  0  0  0  0  0  0
    0.0000    0.0000    0.0000 C   0  0  0  0  0  0  0  0  0  0  0  0
    0.0000    0.0000    0.0000 C   0  0  0  0  0  0  0  0  0  0  0  0
    0.0000    0.0000    0.0000 C   0  0  0  0  0  0  0  0  0  0  0  0
    0.0000    0.0000    0.0000 N   0  0  0  0  0  0  0  0  0  0  0  0
    0.0000    0.0000    0.0000 C   0  0  0  0  0  0  0  0  0  0  0  0
    0.0000    0.0000    0.0000 C   0  0  0  0  0  0  0  0  0  0  0  0
    0.0000    0.0000    0.0000 C   0  0  0  0  0  0  0  0  0  0  0  0
    0.0000    0.0000    0.0000 C   0  0  0  0  0  0  0  0  0  0  0  0
    0.0000    0.0000    0.0000 C   0  0  0  0  0  0  0  0  0  0  0  0
    0.0000    0.0000    0.0000 C   0  0  0  0  0  0  0  0  0  0  0  0
    0.0000    0.0000    0.0000 S   0  0  0  0  0  0  0  0  0  0  0  0
    0.0000    0.0000    0.0000 O   0  0  0  0  0  0  0  0  0  0  0  0
    0.0000    0.0000    0.0000 O   0  0  0  0  0  0  0  0  0  0  0  0
    0.0000    0.0000    0.0000 N   0  0  0  0  0  0  0  0  0  0  0  0
    0.0000    0.0000    0.0000 C   0  0  0  0  0  0  0  0  0  0  0  0
    0.0000    0.0000    0.0000 N   0  0  0  0  0  0  0  0  0  0  0  0
    0.0000    0.0000    0.0000 N   0  0  0  0  0  0  0  0  0  0  0  0
  1  2  1  0
  2  3  2  0
  3  4  1  0
  4  5  2  0
  5  6  1  0
  6  7  1  0
  7  8  2  0
  7  9  1  0
  9 10  2  0
 10 11  1  0
 10 12  1  0
 12 13  2  0
  9 14  1  0
 14 15  2  0
 15 16  1  0
 16 17  2  0
 17 18  1  0
 18 19  2  0
 19 20  1  0
 20 21  2  0
 19 22  1  0
 22 23  2  0
 22 24  2  0
 22 25  1  0
 25 26  1  0
 26 27  2  0
 26 28  1  0
 13  2  1  0
 12  5  1  0
 21 16  1  0
M  END
>  <pIC50>  (508) 
7.0

>  <ChEMBL_ID>  (508) 
CHEMBL2408088

>  <document_journal>  (508) 
Eur. J. Med. Chem.

>  <bao_endpoint>  (508) 
BAO_0000190

>  <potential_duplicate>  (508) 
False

>  <uo_units>  (508) 
UO_0000065

>  <canonical_smiles>  (508) 
Cc1ccc2OC(=O)C(=C(Cl)c2c1)\C=N\c3ccc(cc3)S(=O)(=O)NC(=N)N

>  <parent_molecule_chembl_id>  (508) 
CHEMBL2408088

>  <assay_type>  (508) 
B

>  <src_id>  (508) 
1

>  <ligand_efficiency>  (508) 
{u'le': u'0.34', u'bei': u'16.71', u'sei': u'4.89', u'lle': u'4.26'}

>  <standard_flag>  (508) 
True

>  <molecule_chembl_id>  (508) 
CHEMBL2408088

>  <target_organism>  (508) 
Homo sapiens

>  <standard_units>  (508) 
nM

>  <record_id>  (508) 
1908427

>  <document_chembl_id>  (508) 
CHEMBL2407072

>  <bao_format>  (508) 
BAO_0000357

>  <data_validity_description>  (508) 
None

>  <activity_id>  (508) 
13394609

>  <standard_type>  (508) 
IC50

>  <target_chembl_id>  (508) 
CHEMBL205

>  <data_validity_comment>  (508) 
None

>  <published_value>  (508) 
0.1

>  <document_year>  (508) 
2013

>  <target_pref_name>  (508) 
Carbonic anhydrase II

>  <assay_chembl_id>  (508) 
CHEMBL2411710

>  <standard_relation>  (508) 
=

>  <assay_description>  (508) 
Inhibition of human recombinant CA2 using 4-nitrophenylacetate as substrate preincubated for 15 mins by stopped-flow CO2 hydration assay

>  <published_relation>  (508) 
=

>  <standard_value>  (508) 
100

>  <qudt_units>  (508) 
http://www.openphacts.org/units/Nanomolar

>  <target_tax_id>  (508) 
9606

>  <bao_label>  (508) 
single protein format

>  <published_units>  (508) 
uM

>  <pchembl_value>  (508) 
7

>  <published_type>  (508) 
IC50

>  <activity_comment>  (508) 
None

$$$$

     RDKit          

 30 33  0  0  0  0  0  0  0  0999 V2000
    0.0000    0.0000    0.0000 C   0  0  0  0  0  0  0  0  0  0  0  0
    0.0000    0.0000    0.0000 C   0  0  0  0  0  0  0  0  0  0  0  0
    0.0000    0.0000    0.0000 C   0  0  0  0  0  0  0  0  0  0  0  0
    0.0000    0.0000    0.0000 C   0  0  0  0  0  0  0  0  0  0  0  0
    0.0000    0.0000    0.0000 C   0  0  0  0  0  0  0  0  0  0  0  0
    0.0000    0.0000    0.0000 O   0  0  0  0  0  0  0  0  0  0  0  0
    0.0000    0.0000    0.0000 C   0  0  0  0  0  0  0  0  0  0  0  0
    0.0000    0.0000    0.0000 O   0  0  0  0  0  0  0  0  0  0  0  0
    0.0000    0.0000    0.0000 C   0  0  0  0  0  0  0  0  0  0  0  0
    0.0000    0.0000    0.0000 C   0  0  0  0  0  0  0  0  0  0  0  0
    0.0000    0.0000    0.0000 Cl  0  0  0  0  0  0  0  0  0  0  0  0
    0.0000    0.0000    0.0000 C   0  0  0  0  0  0  0  0  0  0  0  0
    0.0000    0.0000    0.0000 C   0  0  0  0  0  0  0  0  0  0  0  0
    0.0000    0.0000    0.0000 C   0  0  0  0  0  0  0  0  0  0  0  0
    0.0000    0.0000    0.0000 N   0  0  0  0  0  0  0  0  0  0  0  0
    0.0000    0.0000    0.0000 C   0  0  0  0  0  0  0  0  0  0  0  0
    0.0000    0.0000    0.0000 C   0  0  0  0  0  0  0  0  0  0  0  0
    0.0000    0.0000    0.0000 C   0  0  0  0  0  0  0  0  0  0  0  0
    0.0000    0.0000    0.0000 C   0  0  0  0  0  0  0  0  0  0  0  0
    0.0000    0.0000    0.0000 C   0  0  0  0  0  0  0  0  0  0  0  0
    0.0000    0.0000    0.0000 C   0  0  0  0  0  0  0  0  0  0  0  0
    0.0000    0.0000    0.0000 S   0  0  0  0  0  0  0  0  0  0  0  0
    0.0000    0.0000    0.0000 O   0  0  0  0  0  0  0  0  0  0  0  0
    0.0000    0.0000    0.0000 O   0  0  0  0  0  0  0  0  0  0  0  0
    0.0000    0.0000    0.0000 N   0  0  0  0  0  0  0  0  0  0  0  0
    0.0000    0.0000    0.0000 C   0  0  0  0  0  0  0  0  0  0  0  0
    0.0000    0.0000    0.0000 N   0  0  0  0  0  0  0  0  0  0  0  0
    0.0000    0.0000    0.0000 C   0  0  0  0  0  0  0  0  0  0  0  0
    0.0000    0.0000    0.0000 C   0  0  0  0  0  0  0  0  0  0  0  0
    0.0000    0.0000    0.0000 S   0  0  0  0  0  0  0  0  0  0  0  0
  1  2  1  0
  2  3  2  0
  3  4  1  0
  4  5  2  0
  5  6  1  0
  6  7  1  0
  7  8  2  0
  7  9  1  0
  9 10  2  0
 10 11  1  0
 10 12  1  0
 12 13  2  0
  9 14  1  0
 14 15  2  0
 15 16  1  0
 16 17  2  0
 17 18  1  0
 18 19  2  0
 19 20  1  0
 20 21  2  0
 19 22  1  0
 22 23  2  0
 22 24  2  0
 22 25  1  0
 25 26  1  0
 26 27  2  0
 27 28  1  0
 28 29  2  0
 29 30  1  0
 13  2  1  0
 12  5  1  0
 21 16  1  0
 30 26  1  0
M  END
>  <pIC50>  (509) 
6.92

>  <ChEMBL_ID>  (509) 
CHEMBL2408087

>  <document_journal>  (509) 
Eur. J. Med. Chem.

>  <bao_endpoint>  (509) 
BAO_0000190

>  <potential_duplicate>  (509) 
False

>  <uo_units>  (509) 
UO_0000065

>  <canonical_smiles>  (509) 
Cc1ccc2OC(=O)C(=C(Cl)c2c1)\C=N\c3ccc(cc3)S(=O)(=O)Nc4nccs4

>  <parent_molecule_chembl_id>  (509) 
CHEMBL2408087

>  <assay_type>  (509) 
B

>  <src_id>  (509) 
1

>  <ligand_efficiency>  (509) 
{u'le': u'0.31', u'bei': u'15.04', u'sei': u'5.15', u'lle': u'3.23'}

>  <standard_flag>  (509) 
True

>  <molecule_chembl_id>  (509) 
CHEMBL2408087

>  <target_organism>  (509) 
Homo sapiens

>  <standard_units>  (509) 
nM

>  <record_id>  (509) 
1908426

>  <document_chembl_id>  (509) 
CHEMBL2407072

>  <bao_format>  (509) 
BAO_0000357

>  <data_validity_description>  (509) 
None

>  <activity_id>  (509) 
13394610

>  <standard_type>  (509) 
IC50

>  <target_chembl_id>  (509) 
CHEMBL205

>  <data_validity_comment>  (509) 
None

>  <published_value>  (509) 
0.121

>  <document_year>  (509) 
2013

>  <target_pref_name>  (509) 
Carbonic anhydrase II

>  <assay_chembl_id>  (509) 
CHEMBL2411710

>  <standard_relation>  (509) 
=

>  <assay_description>  (509) 
Inhibition of human recombinant CA2 using 4-nitrophenylacetate as substrate preincubated for 15 mins by stopped-flow CO2 hydration assay

>  <published_relation>  (509) 
=

>  <standard_value>  (509) 
121

>  <qudt_units>  (509) 
http://www.openphacts.org/units/Nanomolar

>  <target_tax_id>  (509) 
9606

>  <bao_label>  (509) 
single protein format

>  <published_units>  (509) 
uM

>  <pchembl_value>  (509) 
6.92

>  <published_type>  (509) 
IC50

>  <activity_comment>  (509) 
None

$$$$

     RDKit          

 25 27  0  0  0  0  0  0  0  0999 V2000
    0.0000    0.0000    0.0000 C   0  0  0  0  0  0  0  0  0  0  0  0
    0.0000    0.0000    0.0000 C   0  0  0  0  0  0  0  0  0  0  0  0
    0.0000    0.0000    0.0000 C   0  0  0  0  0  0  0  0  0  0  0  0
    0.0000    0.0000    0.0000 C   0  0  0  0  0  0  0  0  0  0  0  0
    0.0000    0.0000    0.0000 C   0  0  0  0  0  0  0  0  0  0  0  0
    0.0000    0.0000    0.0000 O   0  0  0  0  0  0  0  0  0  0  0  0
    0.0000    0.0000    0.0000 C   0  0  0  0  0  0  0  0  0  0  0  0
    0.0000    0.0000    0.0000 O   0  0  0  0  0  0  0  0  0  0  0  0
    0.0000    0.0000    0.0000 C   0  0  0  0  0  0  0  0  0  0  0  0
    0.0000    0.0000    0.0000 C   0  0  0  0  0  0  0  0  0  0  0  0
    0.0000    0.0000    0.0000 Cl  0  0  0  0  0  0  0  0  0  0  0  0
    0.0000    0.0000    0.0000 C   0  0  0  0  0  0  0  0  0  0  0  0
    0.0000    0.0000    0.0000 C   0  0  0  0  0  0  0  0  0  0  0  0
    0.0000    0.0000    0.0000 C   0  0  0  0  0  0  0  0  0  0  0  0
    0.0000    0.0000    0.0000 N   0  0  0  0  0  0  0  0  0  0  0  0
    0.0000    0.0000    0.0000 C   0  0  0  0  0  0  0  0  0  0  0  0
    0.0000    0.0000    0.0000 C   0  0  0  0  0  0  0  0  0  0  0  0
    0.0000    0.0000    0.0000 C   0  0  0  0  0  0  0  0  0  0  0  0
    0.0000    0.0000    0.0000 C   0  0  0  0  0  0  0  0  0  0  0  0
    0.0000    0.0000    0.0000 C   0  0  0  0  0  0  0  0  0  0  0  0
    0.0000    0.0000    0.0000 C   0  0  0  0  0  0  0  0  0  0  0  0
    0.0000    0.0000    0.0000 S   0  0  0  0  0  0  0  0  0  0  0  0
    0.0000    0.0000    0.0000 O   0  0  0  0  0  0  0  0  0  0  0  0
    0.0000    0.0000    0.0000 O   0  0  0  0  0  0  0  0  0  0  0  0
    0.0000    0.0000    0.0000 N   0  0  0  0  0  0  0  0  0  0  0  0
  1  2  1  0
  2  3  2  0
  3  4  1  0
  4  5  2  0
  5  6  1  0
  6  7  1  0
  7  8  2  0
  7  9  1  0
  9 10  2  0
 10 11  1  0
 10 12  1  0
 12 13  2  0
  9 14  1  0
 14 15  2  0
 15 16  1  0
 16 17  2  0
 17 18  1  0
 18 19  2  0
 19 20  1  0
 20 21  2  0
 19 22  1  0
 22 23  2  0
 22 24  2  0
 22 25  1  0
 13  2  1  0
 12  5  1  0
 21 16  1  0
M  END
>  <pIC50>  (510) 
7.06

>  <ChEMBL_ID>  (510) 
CHEMBL2408086

>  <document_journal>  (510) 
Eur. J. Med. Chem.

>  <bao_endpoint>  (510) 
BAO_0000190

>  <potential_duplicate>  (510) 
False

>  <uo_units>  (510) 
UO_0000065

>  <canonical_smiles>  (510) 
Cc1ccc2OC(=O)C(=C(Cl)c2c1)\C=N\c3ccc(cc3)S(=O)(=O)N

>  <parent_molecule_chembl_id>  (510) 
CHEMBL2408086

>  <assay_type>  (510) 
B

>  <src_id>  (510) 
1

>  <ligand_efficiency>  (510) 
{u'le': u'0.39', u'bei': u'18.72', u'sei': u'6.58', u'lle': u'4.15'}

>  <standard_flag>  (510) 
True

>  <molecule_chembl_id>  (510) 
CHEMBL2408086

>  <target_organism>  (510) 
Homo sapiens

>  <standard_units>  (510) 
nM

>  <record_id>  (510) 
1908425

>  <document_chembl_id>  (510) 
CHEMBL2407072

>  <bao_format>  (510) 
BAO_0000357

>  <data_validity_description>  (510) 
None

>  <activity_id>  (510) 
13394611

>  <standard_type>  (510) 
IC50

>  <target_chembl_id>  (510) 
CHEMBL205

>  <data_validity_comment>  (510) 
None

>  <published_value>  (510) 
0.088

>  <document_year>  (510) 
2013

>  <target_pref_name>  (510) 
Carbonic anhydrase II

>  <assay_chembl_id>  (510) 
CHEMBL2411710

>  <standard_relation>  (510) 
=

>  <assay_description>  (510) 
Inhibition of human recombinant CA2 using 4-nitrophenylacetate as substrate preincubated for 15 mins by stopped-flow CO2 hydration assay

>  <published_relation>  (510) 
=

>  <standard_value>  (510) 
88

>  <qudt_units>  (510) 
http://www.openphacts.org/units/Nanomolar

>  <target_tax_id>  (510) 
9606

>  <bao_label>  (510) 
single protein format

>  <published_units>  (510) 
uM

>  <pchembl_value>  (510) 
7.06

>  <published_type>  (510) 
IC50

>  <activity_comment>  (510) 
None

$$$$

     RDKit          

 39 42  0  0  0  0  0  0  0  0999 V2000
    0.0000    0.0000    0.0000 C   0  0  0  0  0  0  0  0  0  0  0  0
    0.0000    0.0000    0.0000 C   0  0  0  0  0  0  0  0  0  0  0  0
    0.0000    0.0000    0.0000 C   0  0  0  0  0  0  0  0  0  0  0  0
    0.0000    0.0000    0.0000 C   0  0  0  0  0  0  0  0  0  0  0  0
    0.0000    0.0000    0.0000 N   0  0  0  0  0  0  0  0  0  0  0  0
    0.0000    0.0000    0.0000 C   0  0  0  0  0  0  0  0  0  0  0  0
    0.0000    0.0000    0.0000 N   0  0  0  0  0  0  0  0  0  0  0  0
    0.0000    0.0000    0.0000 S   0  0  0  0  0  0  0  0  0  0  0  0
    0.0000    0.0000    0.0000 O   0  0  0  0  0  0  0  0  0  0  0  0
    0.0000    0.0000    0.0000 O   0  0  0  0  0  0  0  0  0  0  0  0
    0.0000    0.0000    0.0000 C   0  0  0  0  0  0  0  0  0  0  0  0
    0.0000    0.0000    0.0000 C   0  0  0  0  0  0  0  0  0  0  0  0
    0.0000    0.0000    0.0000 C   0  0  0  0  0  0  0  0  0  0  0  0
    0.0000    0.0000    0.0000 C   0  0  0  0  0  0  0  0  0  0  0  0
    0.0000    0.0000    0.0000 C   0  0  0  0  0  0  0  0  0  0  0  0
    0.0000    0.0000    0.0000 C   0  0  0  0  0  0  0  0  0  0  0  0
    0.0000    0.0000    0.0000 N   0  0  0  0  0  0  0  0  0  0  0  0
    0.0000    0.0000    0.0000 C   0  0  0  0  0  0  0  0  0  0  0  0
    0.0000    0.0000    0.0000 C   0  0  0  0  0  0  0  0  0  0  0  0
    0.0000    0.0000    0.0000 C   0  0  0  0  0  0  0  0  0  0  0  0
    0.0000    0.0000    0.0000 Cl  0  0  0  0  0  0  0  0  0  0  0  0
    0.0000    0.0000    0.0000 C   0  0  0  0  0  0  0  0  0  0  0  0
    0.0000    0.0000    0.0000 C   0  0  0  0  0  0  0  0  0  0  0  0
    0.0000    0.0000    0.0000 C   0  0  0  0  0  0  0  0  0  0  0  0
    0.0000    0.0000    0.0000 C   0  0  0  0  0  0  0  0  0  0  0  0
    0.0000    0.0000    0.0000 C   0  0  0  0  0  0  0  0  0  0  0  0
    0.0000    0.0000    0.0000 C   0  0  0  0  0  0  0  0  0  0  0  0
    0.0000    0.0000    0.0000 O   0  0  0  0  0  0  0  0  0  0  0  0
    0.0000    0.0000    0.0000 C   0  0  0  0  0  0  0  0  0  0  0  0
    0.0000    0.0000    0.0000 O   0  0  0  0  0  0  0  0  0  0  0  0
    0.0000    0.0000    0.0000 C   0  0  0  0  0  0  0  0  0  0  0  0
    0.0000    0.0000    0.0000 C   0  0  0  0  0  0  0  0  0  0  0  0
    0.0000    0.0000    0.0000 C   0  0  0  0  0  0  0  0  0  0  0  0
    0.0000    0.0000    0.0000 C   0  0  0  0  0  0  0  0  0  0  0  0
    0.0000    0.0000    0.0000 C   0  0  0  0  0  0  0  0  0  0  0  0
    0.0000    0.0000    0.0000 C   0  0  0  0  0  0  0  0  0  0  0  0
    0.0000    0.0000    0.0000 C   0  0  0  0  0  0  0  0  0  0  0  0
    0.0000    0.0000    0.0000 C   0  0  0  0  0  0  0  0  0  0  0  0
    0.0000    0.0000    0.0000 N   0  0  0  0  0  0  0  0  0  0  0  0
  1  2  1  0
  2  3  2  0
  3  4  1  0
  4  5  2  0
  5  6  1  0
  6  7  1  0
  7  8  1  0
  8  9  2  0
  8 10  2  0
  8 11  1  0
 11 12  2  0
 12 13  1  0
 13 14  2  0
 14 15  1  0
 15 16  2  0
 14 17  1  0
 17 18  2  0
 18 19  1  0
 19 20  2  0
 20 21  1  0
 20 22  1  0
 22 23  2  0
 23 24  1  0
 24 25  2  0
 25 26  1  0
 26 27  2  0
 27 28  1  0
 28 29  1  0
 29 30  2  0
 26 31  1  0
 31 32  1  0
 31 33  1  0
 31 34  1  0
 24 35  1  0
 35 36  1  0
 35 37  1  0
 35 38  1  0
  6 39  2  0
 39  2  1  0
 16 11  1  0
 29 19  1  0
 27 22  1  0
M  END
>  <pIC50>  (511) 
7.2

>  <ChEMBL_ID>  (511) 
CHEMBL2408085

>  <document_journal>  (511) 
Eur. J. Med. Chem.

>  <bao_endpoint>  (511) 
BAO_0000190

>  <potential_duplicate>  (511) 
False

>  <uo_units>  (511) 
UO_0000065

>  <canonical_smiles>  (511) 
Cc1ccnc(NS(=O)(=O)c2ccc(cc2)\N=C\C3=C(Cl)c4cc(cc(c4OC3=O)C(C)(C)C)C(C)(C)C)n1

>  <parent_molecule_chembl_id>  (511) 
CHEMBL2408085

>  <assay_type>  (511) 
B

>  <src_id>  (511) 
1

>  <ligand_efficiency>  (511) 
{u'le': u'0.25', u'bei': u'12.7', u'sei': u'6.05', u'lle': u'1.17'}

>  <standard_flag>  (511) 
True

>  <molecule_chembl_id>  (511) 
CHEMBL2408085

>  <target_organism>  (511) 
Homo sapiens

>  <standard_units>  (511) 
nM

>  <record_id>  (511) 
1908424

>  <document_chembl_id>  (511) 
CHEMBL2407072

>  <bao_format>  (511) 
BAO_0000357

>  <data_validity_description>  (511) 
None

>  <activity_id>  (511) 
13394612

>  <standard_type>  (511) 
IC50

>  <target_chembl_id>  (511) 
CHEMBL205

>  <data_validity_comment>  (511) 
None

>  <published_value>  (511) 
0.063

>  <document_year>  (511) 
2013

>  <target_pref_name>  (511) 
Carbonic anhydrase II

>  <assay_chembl_id>  (511) 
CHEMBL2411710

>  <standard_relation>  (511) 
=

>  <assay_description>  (511) 
Inhibition of human recombinant CA2 using 4-nitrophenylacetate as substrate preincubated for 15 mins by stopped-flow CO2 hydration assay

>  <published_relation>  (511) 
=

>  <standard_value>  (511) 
63

>  <qudt_units>  (511) 
http://www.openphacts.org/units/Nanomolar

>  <target_tax_id>  (511) 
9606

>  <bao_label>  (511) 
single protein format

>  <published_units>  (511) 
uM

>  <pchembl_value>  (511) 
7.2

>  <published_type>  (511) 
IC50

>  <activity_comment>  (511) 
None

$$$$

     RDKit          

 38 41  0  0  0  0  0  0  0  0999 V2000
    0.0000    0.0000    0.0000 C   0  0  0  0  0  0  0  0  0  0  0  0
    0.0000    0.0000    0.0000 C   0  0  0  0  0  0  0  0  0  0  0  0
    0.0000    0.0000    0.0000 O   0  0  0  0  0  0  0  0  0  0  0  0
    0.0000    0.0000    0.0000 N   0  0  0  0  0  0  0  0  0  0  0  0
    0.0000    0.0000    0.0000 C   0  0  0  0  0  0  0  0  0  0  0  0
    0.0000    0.0000    0.0000 N   0  0  0  0  0  0  0  0  0  0  0  0
    0.0000    0.0000    0.0000 S   0  0  0  0  0  0  0  0  0  0  0  0
    0.0000    0.0000    0.0000 O   0  0  0  0  0  0  0  0  0  0  0  0
    0.0000    0.0000    0.0000 O   0  0  0  0  0  0  0  0  0  0  0  0
    0.0000    0.0000    0.0000 C   0  0  0  0  0  0  0  0  0  0  0  0
    0.0000    0.0000    0.0000 C   0  0  0  0  0  0  0  0  0  0  0  0
    0.0000    0.0000    0.0000 C   0  0  0  0  0  0  0  0  0  0  0  0
    0.0000    0.0000    0.0000 C   0  0  0  0  0  0  0  0  0  0  0  0
    0.0000    0.0000    0.0000 C   0  0  0  0  0  0  0  0  0  0  0  0
    0.0000    0.0000    0.0000 C   0  0  0  0  0  0  0  0  0  0  0  0
    0.0000    0.0000    0.0000 N   0  0  0  0  0  0  0  0  0  0  0  0
    0.0000    0.0000    0.0000 C   0  0  0  0  0  0  0  0  0  0  0  0
    0.0000    0.0000    0.0000 C   0  0  0  0  0  0  0  0  0  0  0  0
    0.0000    0.0000    0.0000 C   0  0  0  0  0  0  0  0  0  0  0  0
    0.0000    0.0000    0.0000 Cl  0  0  0  0  0  0  0  0  0  0  0  0
    0.0000    0.0000    0.0000 C   0  0  0  0  0  0  0  0  0  0  0  0
    0.0000    0.0000    0.0000 C   0  0  0  0  0  0  0  0  0  0  0  0
    0.0000    0.0000    0.0000 C   0  0  0  0  0  0  0  0  0  0  0  0
    0.0000    0.0000    0.0000 C   0  0  0  0  0  0  0  0  0  0  0  0
    0.0000    0.0000    0.0000 C   0  0  0  0  0  0  0  0  0  0  0  0
    0.0000    0.0000    0.0000 C   0  0  0  0  0  0  0  0  0  0  0  0
    0.0000    0.0000    0.0000 O   0  0  0  0  0  0  0  0  0  0  0  0
    0.0000    0.0000    0.0000 C   0  0  0  0  0  0  0  0  0  0  0  0
    0.0000    0.0000    0.0000 O   0  0  0  0  0  0  0  0  0  0  0  0
    0.0000    0.0000    0.0000 C   0  0  0  0  0  0  0  0  0  0  0  0
    0.0000    0.0000    0.0000 C   0  0  0  0  0  0  0  0  0  0  0  0
    0.0000    0.0000    0.0000 C   0  0  0  0  0  0  0  0  0  0  0  0
    0.0000    0.0000    0.0000 C   0  0  0  0  0  0  0  0  0  0  0  0
    0.0000    0.0000    0.0000 C   0  0  0  0  0  0  0  0  0  0  0  0
    0.0000    0.0000    0.0000 C   0  0  0  0  0  0  0  0  0  0  0  0
    0.0000    0.0000    0.0000 C   0  0  0  0  0  0  0  0  0  0  0  0
    0.0000    0.0000    0.0000 C   0  0  0  0  0  0  0  0  0  0  0  0
    0.0000    0.0000    0.0000 C   0  0  0  0  0  0  0  0  0  0  0  0
  1  2  1  0
  2  3  1  0
  3  4  1  0
  4  5  2  0
  5  6  1  0
  6  7  1  0
  7  8  2  0
  7  9  2  0
  7 10  1  0
 10 11  2  0
 11 12  1  0
 12 13  2  0
 13 14  1  0
 14 15  2  0
 13 16  1  0
 16 17  2  0
 17 18  1  0
 18 19  2  0
 19 20  1  0
 19 21  1  0
 21 22  2  0
 22 23  1  0
 23 24  2  0
 24 25  1  0
 25 26  2  0
 26 27  1  0
 27 28  1  0
 28 29  2  0
 25 30  1  0
 30 31  1  0
 30 32  1  0
 30 33  1  0
 23 34  1  0
 34 35  1  0
 34 36  1  0
 34 37  1  0
  5 38  1  0
 38  2  2  0
 15 10  1  0
 28 18  1  0
 26 21  1  0
M  END
>  <pIC50>  (512) 
6.76

>  <ChEMBL_ID>  (512) 
CHEMBL2408084

>  <document_journal>  (512) 
Eur. J. Med. Chem.

>  <bao_endpoint>  (512) 
BAO_0000190

>  <potential_duplicate>  (512) 
False

>  <uo_units>  (512) 
UO_0000065

>  <canonical_smiles>  (512) 
Cc1onc(NS(=O)(=O)c2ccc(cc2)\N=C\C3=C(Cl)c4cc(cc(c4OC3=O)C(C)(C)C)C(C)(C)C)c1

>  <parent_molecule_chembl_id>  (512) 
CHEMBL2408084

>  <assay_type>  (512) 
B

>  <src_id>  (512) 
1

>  <ligand_efficiency>  (512) 
{u'le': u'0.24', u'bei': u'12.16', u'sei': u'5.67', u'lle': u'0.62'}

>  <standard_flag>  (512) 
True

>  <molecule_chembl_id>  (512) 
CHEMBL2408084

>  <target_organism>  (512) 
Homo sapiens

>  <standard_units>  (512) 
nM

>  <record_id>  (512) 
1908423

>  <document_chembl_id>  (512) 
CHEMBL2407072

>  <bao_format>  (512) 
BAO_0000357

>  <data_validity_description>  (512) 
None

>  <activity_id>  (512) 
13394613

>  <standard_type>  (512) 
IC50

>  <target_chembl_id>  (512) 
CHEMBL205

>  <data_validity_comment>  (512) 
None

>  <published_value>  (512) 
0.173

>  <document_year>  (512) 
2013

>  <target_pref_name>  (512) 
Carbonic anhydrase II

>  <assay_chembl_id>  (512) 
CHEMBL2411710

>  <standard_relation>  (512) 
=

>  <assay_description>  (512) 
Inhibition of human recombinant CA2 using 4-nitrophenylacetate as substrate preincubated for 15 mins by stopped-flow CO2 hydration assay

>  <published_relation>  (512) 
=

>  <standard_value>  (512) 
173

>  <qudt_units>  (512) 
http://www.openphacts.org/units/Nanomolar

>  <target_tax_id>  (512) 
9606

>  <bao_label>  (512) 
single protein format

>  <published_units>  (512) 
uM

>  <pchembl_value>  (512) 
6.76

>  <published_type>  (512) 
IC50

>  <activity_comment>  (512) 
None

$$$$

     RDKit          

 40 43  0  0  0  0  0  0  0  0999 V2000
    0.0000    0.0000    0.0000 C   0  0  0  0  0  0  0  0  0  0  0  0
    0.0000    0.0000    0.0000 C   0  0  0  0  0  0  0  0  0  0  0  0
    0.0000    0.0000    0.0000 C   0  0  0  0  0  0  0  0  0  0  0  0
    0.0000    0.0000    0.0000 C   0  0  0  0  0  0  0  0  0  0  0  0
    0.0000    0.0000    0.0000 C   0  0  0  0  0  0  0  0  0  0  0  0
    0.0000    0.0000    0.0000 N   0  0  0  0  0  0  0  0  0  0  0  0
    0.0000    0.0000    0.0000 C   0  0  0  0  0  0  0  0  0  0  0  0
    0.0000    0.0000    0.0000 N   0  0  0  0  0  0  0  0  0  0  0  0
    0.0000    0.0000    0.0000 S   0  0  0  0  0  0  0  0  0  0  0  0
    0.0000    0.0000    0.0000 O   0  0  0  0  0  0  0  0  0  0  0  0
    0.0000    0.0000    0.0000 O   0  0  0  0  0  0  0  0  0  0  0  0
    0.0000    0.0000    0.0000 C   0  0  0  0  0  0  0  0  0  0  0  0
    0.0000    0.0000    0.0000 C   0  0  0  0  0  0  0  0  0  0  0  0
    0.0000    0.0000    0.0000 C   0  0  0  0  0  0  0  0  0  0  0  0
    0.0000    0.0000    0.0000 C   0  0  0  0  0  0  0  0  0  0  0  0
    0.0000    0.0000    0.0000 C   0  0  0  0  0  0  0  0  0  0  0  0
    0.0000    0.0000    0.0000 C   0  0  0  0  0  0  0  0  0  0  0  0
    0.0000    0.0000    0.0000 N   0  0  0  0  0  0  0  0  0  0  0  0
    0.0000    0.0000    0.0000 C   0  0  0  0  0  0  0  0  0  0  0  0
    0.0000    0.0000    0.0000 C   0  0  0  0  0  0  0  0  0  0  0  0
    0.0000    0.0000    0.0000 C   0  0  0  0  0  0  0  0  0  0  0  0
    0.0000    0.0000    0.0000 Cl  0  0  0  0  0  0  0  0  0  0  0  0
    0.0000    0.0000    0.0000 C   0  0  0  0  0  0  0  0  0  0  0  0
    0.0000    0.0000    0.0000 C   0  0  0  0  0  0  0  0  0  0  0  0
    0.0000    0.0000    0.0000 C   0  0  0  0  0  0  0  0  0  0  0  0
    0.0000    0.0000    0.0000 C   0  0  0  0  0  0  0  0  0  0  0  0
    0.0000    0.0000    0.0000 C   0  0  0  0  0  0  0  0  0  0  0  0
    0.0000    0.0000    0.0000 C   0  0  0  0  0  0  0  0  0  0  0  0
    0.0000    0.0000    0.0000 O   0  0  0  0  0  0  0  0  0  0  0  0
    0.0000    0.0000    0.0000 C   0  0  0  0  0  0  0  0  0  0  0  0
    0.0000    0.0000    0.0000 O   0  0  0  0  0  0  0  0  0  0  0  0
    0.0000    0.0000    0.0000 C   0  0  0  0  0  0  0  0  0  0  0  0
    0.0000    0.0000    0.0000 C   0  0  0  0  0  0  0  0  0  0  0  0
    0.0000    0.0000    0.0000 C   0  0  0  0  0  0  0  0  0  0  0  0
    0.0000    0.0000    0.0000 C   0  0  0  0  0  0  0  0  0  0  0  0
    0.0000    0.0000    0.0000 C   0  0  0  0  0  0  0  0  0  0  0  0
    0.0000    0.0000    0.0000 C   0  0  0  0  0  0  0  0  0  0  0  0
    0.0000    0.0000    0.0000 C   0  0  0  0  0  0  0  0  0  0  0  0
    0.0000    0.0000    0.0000 C   0  0  0  0  0  0  0  0  0  0  0  0
    0.0000    0.0000    0.0000 N   0  0  0  0  0  0  0  0  0  0  0  0
  1  2  1  0
  2  3  2  0
  3  4  1  0
  4  5  1  0
  4  6  2  0
  6  7  1  0
  7  8  1  0
  8  9  1  0
  9 10  2  0
  9 11  2  0
  9 12  1  0
 12 13  2  0
 13 14  1  0
 14 15  2  0
 15 16  1  0
 16 17  2  0
 15 18  1  0
 18 19  2  0
 19 20  1  0
 20 21  2  0
 21 22  1  0
 21 23  1  0
 23 24  2  0
 24 25  1  0
 25 26  2  0
 26 27  1  0
 27 28  2  0
 28 29  1  0
 29 30  1  0
 30 31  2  0
 27 32  1  0
 32 33  1  0
 32 34  1  0
 32 35  1  0
 25 36  1  0
 36 37  1  0
 36 38  1  0
 36 39  1  0
  7 40  2  0
 40  2  1  0
 17 12  1  0
 30 20  1  0
 28 23  1  0
M  END
>  <pIC50>  (513) 
6.76

>  <ChEMBL_ID>  (513) 
CHEMBL2408083

>  <document_journal>  (513) 
Eur. J. Med. Chem.

>  <bao_endpoint>  (513) 
BAO_0000190

>  <potential_duplicate>  (513) 
False

>  <uo_units>  (513) 
UO_0000065

>  <canonical_smiles>  (513) 
Cc1cc(C)nc(NS(=O)(=O)c2ccc(cc2)\N=C\C3=C(Cl)c4cc(cc(c4OC3=O)C(C)(C)C)C(C)(C)C)n1

>  <parent_molecule_chembl_id>  (513) 
CHEMBL2408083

>  <assay_type>  (513) 
B

>  <src_id>  (513) 
1

>  <ligand_efficiency>  (513) 
{u'le': u'0.23', u'bei': u'11.64', u'sei': u'5.68', u'lle': u'0.45'}

>  <standard_flag>  (513) 
True

>  <molecule_chembl_id>  (513) 
CHEMBL2408083

>  <target_organism>  (513) 
Homo sapiens

>  <standard_units>  (513) 
nM

>  <record_id>  (513) 
1908422

>  <document_chembl_id>  (513) 
CHEMBL2407072

>  <bao_format>  (513) 
BAO_0000357

>  <data_validity_description>  (513) 
None

>  <activity_id>  (513) 
13394614

>  <standard_type>  (513) 
IC50

>  <target_chembl_id>  (513) 
CHEMBL205

>  <data_validity_comment>  (513) 
None

>  <published_value>  (513) 
0.173

>  <document_year>  (513) 
2013

>  <target_pref_name>  (513) 
Carbonic anhydrase II

>  <assay_chembl_id>  (513) 
CHEMBL2411710

>  <standard_relation>  (513) 
=

>  <assay_description>  (513) 
Inhibition of human recombinant CA2 using 4-nitrophenylacetate as substrate preincubated for 15 mins by stopped-flow CO2 hydration assay

>  <published_relation>  (513) 
=

>  <standard_value>  (513) 
173

>  <qudt_units>  (513) 
http://www.openphacts.org/units/Nanomolar

>  <target_tax_id>  (513) 
9606

>  <bao_label>  (513) 
single protein format

>  <published_units>  (513) 
uM

>  <pchembl_value>  (513) 
6.76

>  <published_type>  (513) 
IC50

>  <activity_comment>  (513) 
None

$$$$

     RDKit          

 35 37  0  0  0  0  0  0  0  0999 V2000
    0.0000    0.0000    0.0000 C   0  0  0  0  0  0  0  0  0  0  0  0
    0.0000    0.0000    0.0000 C   0  0  0  0  0  0  0  0  0  0  0  0
    0.0000    0.0000    0.0000 C   0  0  0  0  0  0  0  0  0  0  0  0
    0.0000    0.0000    0.0000 C   0  0  0  0  0  0  0  0  0  0  0  0
    0.0000    0.0000    0.0000 C   0  0  0  0  0  0  0  0  0  0  0  0
    0.0000    0.0000    0.0000 C   0  0  0  0  0  0  0  0  0  0  0  0
    0.0000    0.0000    0.0000 C   0  0  0  0  0  0  0  0  0  0  0  0
    0.0000    0.0000    0.0000 C   0  0  0  0  0  0  0  0  0  0  0  0
    0.0000    0.0000    0.0000 C   0  0  0  0  0  0  0  0  0  0  0  0
    0.0000    0.0000    0.0000 C   0  0  0  0  0  0  0  0  0  0  0  0
    0.0000    0.0000    0.0000 N   0  0  0  0  0  0  0  0  0  0  0  0
    0.0000    0.0000    0.0000 C   0  0  0  0  0  0  0  0  0  0  0  0
    0.0000    0.0000    0.0000 C   0  0  0  0  0  0  0  0  0  0  0  0
    0.0000    0.0000    0.0000 C   0  0  0  0  0  0  0  0  0  0  0  0
    0.0000    0.0000    0.0000 C   0  0  0  0  0  0  0  0  0  0  0  0
    0.0000    0.0000    0.0000 C   0  0  0  0  0  0  0  0  0  0  0  0
    0.0000    0.0000    0.0000 C   0  0  0  0  0  0  0  0  0  0  0  0
    0.0000    0.0000    0.0000 S   0  0  0  0  0  0  0  0  0  0  0  0
    0.0000    0.0000    0.0000 O   0  0  0  0  0  0  0  0  0  0  0  0
    0.0000    0.0000    0.0000 O   0  0  0  0  0  0  0  0  0  0  0  0
    0.0000    0.0000    0.0000 N   0  0  0  0  0  0  0  0  0  0  0  0
    0.0000    0.0000    0.0000 C   0  0  0  0  0  0  0  0  0  0  0  0
    0.0000    0.0000    0.0000 N   0  0  0  0  0  0  0  0  0  0  0  0
    0.0000    0.0000    0.0000 N   0  0  0  0  0  0  0  0  0  0  0  0
    0.0000    0.0000    0.0000 C   0  0  0  0  0  0  0  0  0  0  0  0
    0.0000    0.0000    0.0000 O   0  0  0  0  0  0  0  0  0  0  0  0
    0.0000    0.0000    0.0000 O   0  0  0  0  0  0  0  0  0  0  0  0
    0.0000    0.0000    0.0000 C   0  0  0  0  0  0  0  0  0  0  0  0
    0.0000    0.0000    0.0000 C   0  0  0  0  0  0  0  0  0  0  0  0
    0.0000    0.0000    0.0000 C   0  0  0  0  0  0  0  0  0  0  0  0
    0.0000    0.0000    0.0000 C   0  0  0  0  0  0  0  0  0  0  0  0
    0.0000    0.0000    0.0000 C   0  0  0  0  0  0  0  0  0  0  0  0
    0.0000    0.0000    0.0000 C   0  0  0  0  0  0  0  0  0  0  0  0
    0.0000    0.0000    0.0000 C   0  0  0  0  0  0  0  0  0  0  0  0
    0.0000    0.0000    0.0000 Cl  0  0  0  0  0  0  0  0  0  0  0  0
  1  2  1  0
  2  3  1  0
  2  4  1  0
  2  5  1  0
  5  6  2  0
  6  7  1  0
  7  8  1  0
  8  9  2  0
  9 10  1  0
 10 11  2  0
 11 12  1  0
 12 13  2  0
 13 14  1  0
 14 15  2  0
 15 16  1  0
 16 17  2  0
 15 18  1  0
 18 19  2  0
 18 20  2  0
 18 21  1  0
 21 22  1  0
 22 23  2  0
 22 24  1  0
  9 25  1  0
 25 26  2  0
 25 27  1  0
 27 28  1  0
 28 29  1  0
 29 30  2  0
 29 31  1  0
 31 32  1  0
 31 33  1  0
 31 34  1  0
  8 35  1  0
 30  5  1  0
 28  7  2  0
 17 12  1  0
M  END
>  <pIC50>  (514) 
6.99

>  <ChEMBL_ID>  (514) 
CHEMBL2408082

>  <document_journal>  (514) 
Eur. J. Med. Chem.

>  <bao_endpoint>  (514) 
BAO_0000190

>  <potential_duplicate>  (514) 
False

>  <uo_units>  (514) 
UO_0000065

>  <canonical_smiles>  (514) 
CC(C)(C)c1cc2C(=C(\C=N\c3ccc(cc3)S(=O)(=O)NC(=N)N)C(=O)Oc2c(c1)C(C)(C)C)Cl

>  <parent_molecule_chembl_id>  (514) 
CHEMBL2408082

>  <assay_type>  (514) 
B

>  <src_id>  (514) 
1

>  <ligand_efficiency>  (514) 
{u'le': u'0.27', u'bei': u'13.51', u'sei': u'4.88', u'lle': u'1.93'}

>  <standard_flag>  (514) 
True

>  <molecule_chembl_id>  (514) 
CHEMBL2408082

>  <target_organism>  (514) 
Homo sapiens

>  <standard_units>  (514) 
nM

>  <record_id>  (514) 
1908421

>  <document_chembl_id>  (514) 
CHEMBL2407072

>  <bao_format>  (514) 
BAO_0000357

>  <data_validity_description>  (514) 
None

>  <activity_id>  (514) 
13394615

>  <standard_type>  (514) 
IC50

>  <target_chembl_id>  (514) 
CHEMBL205

>  <data_validity_comment>  (514) 
None

>  <published_value>  (514) 
0.103

>  <document_year>  (514) 
2013

>  <target_pref_name>  (514) 
Carbonic anhydrase II

>  <assay_chembl_id>  (514) 
CHEMBL2411710

>  <standard_relation>  (514) 
=

>  <assay_description>  (514) 
Inhibition of human recombinant CA2 using 4-nitrophenylacetate as substrate preincubated for 15 mins by stopped-flow CO2 hydration assay

>  <published_relation>  (514) 
=

>  <standard_value>  (514) 
103

>  <qudt_units>  (514) 
http://www.openphacts.org/units/Nanomolar

>  <target_tax_id>  (514) 
9606

>  <bao_label>  (514) 
single protein format

>  <published_units>  (514) 
uM

>  <pchembl_value>  (514) 
6.99

>  <published_type>  (514) 
IC50

>  <activity_comment>  (514) 
None

$$$$

     RDKit          

 37 40  0  0  0  0  0  0  0  0999 V2000
    0.0000    0.0000    0.0000 C   0  0  0  0  0  0  0  0  0  0  0  0
    0.0000    0.0000    0.0000 C   0  0  0  0  0  0  0  0  0  0  0  0
    0.0000    0.0000    0.0000 C   0  0  0  0  0  0  0  0  0  0  0  0
    0.0000    0.0000    0.0000 C   0  0  0  0  0  0  0  0  0  0  0  0
    0.0000    0.0000    0.0000 C   0  0  0  0  0  0  0  0  0  0  0  0
    0.0000    0.0000    0.0000 C   0  0  0  0  0  0  0  0  0  0  0  0
    0.0000    0.0000    0.0000 C   0  0  0  0  0  0  0  0  0  0  0  0
    0.0000    0.0000    0.0000 C   0  0  0  0  0  0  0  0  0  0  0  0
    0.0000    0.0000    0.0000 C   0  0  0  0  0  0  0  0  0  0  0  0
    0.0000    0.0000    0.0000 C   0  0  0  0  0  0  0  0  0  0  0  0
    0.0000    0.0000    0.0000 N   0  0  0  0  0  0  0  0  0  0  0  0
    0.0000    0.0000    0.0000 C   0  0  0  0  0  0  0  0  0  0  0  0
    0.0000    0.0000    0.0000 C   0  0  0  0  0  0  0  0  0  0  0  0
    0.0000    0.0000    0.0000 C   0  0  0  0  0  0  0  0  0  0  0  0
    0.0000    0.0000    0.0000 C   0  0  0  0  0  0  0  0  0  0  0  0
    0.0000    0.0000    0.0000 C   0  0  0  0  0  0  0  0  0  0  0  0
    0.0000    0.0000    0.0000 C   0  0  0  0  0  0  0  0  0  0  0  0
    0.0000    0.0000    0.0000 S   0  0  0  0  0  0  0  0  0  0  0  0
    0.0000    0.0000    0.0000 O   0  0  0  0  0  0  0  0  0  0  0  0
    0.0000    0.0000    0.0000 O   0  0  0  0  0  0  0  0  0  0  0  0
    0.0000    0.0000    0.0000 N   0  0  0  0  0  0  0  0  0  0  0  0
    0.0000    0.0000    0.0000 C   0  0  0  0  0  0  0  0  0  0  0  0
    0.0000    0.0000    0.0000 N   0  0  0  0  0  0  0  0  0  0  0  0
    0.0000    0.0000    0.0000 C   0  0  0  0  0  0  0  0  0  0  0  0
    0.0000    0.0000    0.0000 C   0  0  0  0  0  0  0  0  0  0  0  0
    0.0000    0.0000    0.0000 S   0  0  0  0  0  0  0  0  0  0  0  0
    0.0000    0.0000    0.0000 C   0  0  0  0  0  0  0  0  0  0  0  0
    0.0000    0.0000    0.0000 O   0  0  0  0  0  0  0  0  0  0  0  0
    0.0000    0.0000    0.0000 O   0  0  0  0  0  0  0  0  0  0  0  0
    0.0000    0.0000    0.0000 C   0  0  0  0  0  0  0  0  0  0  0  0
    0.0000    0.0000    0.0000 C   0  0  0  0  0  0  0  0  0  0  0  0
    0.0000    0.0000    0.0000 C   0  0  0  0  0  0  0  0  0  0  0  0
    0.0000    0.0000    0.0000 C   0  0  0  0  0  0  0  0  0  0  0  0
    0.0000    0.0000    0.0000 C   0  0  0  0  0  0  0  0  0  0  0  0
    0.0000    0.0000    0.0000 C   0  0  0  0  0  0  0  0  0  0  0  0
    0.0000    0.0000    0.0000 C   0  0  0  0  0  0  0  0  0  0  0  0
    0.0000    0.0000    0.0000 Cl  0  0  0  0  0  0  0  0  0  0  0  0
  1  2  1  0
  2  3  1  0
  2  4  1  0
  2  5  1  0
  5  6  2  0
  6  7  1  0
  7  8  1  0
  8  9  2  0
  9 10  1  0
 10 11  2  0
 11 12  1  0
 12 13  2  0
 13 14  1  0
 14 15  2  0
 15 16  1  0
 16 17  2  0
 15 18  1  0
 18 19  2  0
 18 20  2  0
 18 21  1  0
 21 22  1  0
 22 23  2  0
 23 24  1  0
 24 25  2  0
 25 26  1  0
  9 27  1  0
 27 28  2  0
 27 29  1  0
 29 30  1  0
 30 31  1  0
 31 32  2  0
 31 33  1  0
 33 34  1  0
 33 35  1  0
 33 36  1  0
  8 37  1  0
 32  5  1  0
 30  7  2  0
 17 12  1  0
 26 22  1  0
M  END
>  <pIC50>  (515) 
6.91

>  <ChEMBL_ID>  (515) 
CHEMBL2408081

>  <document_journal>  (515) 
Eur. J. Med. Chem.

>  <bao_endpoint>  (515) 
BAO_0000190

>  <potential_duplicate>  (515) 
False

>  <uo_units>  (515) 
UO_0000065

>  <canonical_smiles>  (515) 
CC(C)(C)c1cc2C(=C(\C=N\c3ccc(cc3)S(=O)(=O)Nc4nccs4)C(=O)Oc2c(c1)C(C)(C)C)Cl

>  <parent_molecule_chembl_id>  (515) 
CHEMBL2408081

>  <assay_type>  (515) 
B

>  <src_id>  (515) 
1

>  <ligand_efficiency>  (515) 
{u'le': u'0.26', u'bei': u'12.39', u'sei': u'5.15', u'lle': u'0.91'}

>  <standard_flag>  (515) 
True

>  <molecule_chembl_id>  (515) 
CHEMBL2408081

>  <target_organism>  (515) 
Homo sapiens

>  <standard_units>  (515) 
nM

>  <record_id>  (515) 
1908420

>  <document_chembl_id>  (515) 
CHEMBL2407072

>  <bao_format>  (515) 
BAO_0000357

>  <data_validity_description>  (515) 
None

>  <activity_id>  (515) 
13394616

>  <standard_type>  (515) 
IC50

>  <target_chembl_id>  (515) 
CHEMBL205

>  <data_validity_comment>  (515) 
None

>  <published_value>  (515) 
0.122

>  <document_year>  (515) 
2013

>  <target_pref_name>  (515) 
Carbonic anhydrase II

>  <assay_chembl_id>  (515) 
CHEMBL2411710

>  <standard_relation>  (515) 
=

>  <assay_description>  (515) 
Inhibition of human recombinant CA2 using 4-nitrophenylacetate as substrate preincubated for 15 mins by stopped-flow CO2 hydration assay

>  <published_relation>  (515) 
=

>  <standard_value>  (515) 
122

>  <qudt_units>  (515) 
http://www.openphacts.org/units/Nanomolar

>  <target_tax_id>  (515) 
9606

>  <bao_label>  (515) 
single protein format

>  <published_units>  (515) 
uM

>  <pchembl_value>  (515) 
6.91

>  <published_type>  (515) 
IC50

>  <activity_comment>  (515) 
None

$$$$

     RDKit          

 32 34  0  0  0  0  0  0  0  0999 V2000
    0.0000    0.0000    0.0000 C   0  0  0  0  0  0  0  0  0  0  0  0
    0.0000    0.0000    0.0000 C   0  0  0  0  0  0  0  0  0  0  0  0
    0.0000    0.0000    0.0000 C   0  0  0  0  0  0  0  0  0  0  0  0
    0.0000    0.0000    0.0000 C   0  0  0  0  0  0  0  0  0  0  0  0
    0.0000    0.0000    0.0000 C   0  0  0  0  0  0  0  0  0  0  0  0
    0.0000    0.0000    0.0000 C   0  0  0  0  0  0  0  0  0  0  0  0
    0.0000    0.0000    0.0000 C   0  0  0  0  0  0  0  0  0  0  0  0
    0.0000    0.0000    0.0000 C   0  0  0  0  0  0  0  0  0  0  0  0
    0.0000    0.0000    0.0000 C   0  0  0  0  0  0  0  0  0  0  0  0
    0.0000    0.0000    0.0000 C   0  0  0  0  0  0  0  0  0  0  0  0
    0.0000    0.0000    0.0000 N   0  0  0  0  0  0  0  0  0  0  0  0
    0.0000    0.0000    0.0000 C   0  0  0  0  0  0  0  0  0  0  0  0
    0.0000    0.0000    0.0000 C   0  0  0  0  0  0  0  0  0  0  0  0
    0.0000    0.0000    0.0000 C   0  0  0  0  0  0  0  0  0  0  0  0
    0.0000    0.0000    0.0000 C   0  0  0  0  0  0  0  0  0  0  0  0
    0.0000    0.0000    0.0000 C   0  0  0  0  0  0  0  0  0  0  0  0
    0.0000    0.0000    0.0000 C   0  0  0  0  0  0  0  0  0  0  0  0
    0.0000    0.0000    0.0000 S   0  0  0  0  0  0  0  0  0  0  0  0
    0.0000    0.0000    0.0000 O   0  0  0  0  0  0  0  0  0  0  0  0
    0.0000    0.0000    0.0000 O   0  0  0  0  0  0  0  0  0  0  0  0
    0.0000    0.0000    0.0000 N   0  0  0  0  0  0  0  0  0  0  0  0
    0.0000    0.0000    0.0000 C   0  0  0  0  0  0  0  0  0  0  0  0
    0.0000    0.0000    0.0000 O   0  0  0  0  0  0  0  0  0  0  0  0
    0.0000    0.0000    0.0000 O   0  0  0  0  0  0  0  0  0  0  0  0
    0.0000    0.0000    0.0000 C   0  0  0  0  0  0  0  0  0  0  0  0
    0.0000    0.0000    0.0000 C   0  0  0  0  0  0  0  0  0  0  0  0
    0.0000    0.0000    0.0000 C   0  0  0  0  0  0  0  0  0  0  0  0
    0.0000    0.0000    0.0000 C   0  0  0  0  0  0  0  0  0  0  0  0
    0.0000    0.0000    0.0000 C   0  0  0  0  0  0  0  0  0  0  0  0
    0.0000    0.0000    0.0000 C   0  0  0  0  0  0  0  0  0  0  0  0
    0.0000    0.0000    0.0000 C   0  0  0  0  0  0  0  0  0  0  0  0
    0.0000    0.0000    0.0000 Cl  0  0  0  0  0  0  0  0  0  0  0  0
  1  2  1  0
  2  3  1  0
  2  4  1  0
  2  5  1  0
  5  6  2  0
  6  7  1  0
  7  8  1  0
  8  9  2  0
  9 10  1  0
 10 11  2  0
 11 12  1  0
 12 13  2  0
 13 14  1  0
 14 15  2  0
 15 16  1  0
 16 17  2  0
 15 18  1  0
 18 19  2  0
 18 20  2  0
 18 21  1  0
  9 22  1  0
 22 23  2  0
 22 24  1  0
 24 25  1  0
 25 26  1  0
 26 27  2  0
 26 28  1  0
 28 29  1  0
 28 30  1  0
 28 31  1  0
  8 32  1  0
 27  5  1  0
 25  7  2  0
 17 12  1  0
M  END
>  <pIC50>  (516) 
6.95

>  <ChEMBL_ID>  (516) 
CHEMBL2408080

>  <document_journal>  (516) 
Eur. J. Med. Chem.

>  <bao_endpoint>  (516) 
BAO_0000190

>  <potential_duplicate>  (516) 
False

>  <uo_units>  (516) 
UO_0000065

>  <canonical_smiles>  (516) 
CC(C)(C)c1cc2C(=C(\C=N\c3ccc(cc3)S(=O)(=O)N)C(=O)Oc2c(c1)C(C)(C)C)Cl

>  <parent_molecule_chembl_id>  (516) 
CHEMBL2408080

>  <assay_type>  (516) 
B

>  <src_id>  (516) 
1

>  <ligand_efficiency>  (516) 
{u'le': u'0.3', u'bei': u'14.63', u'sei': u'6.48', u'lle': u'1.73'}

>  <standard_flag>  (516) 
True

>  <molecule_chembl_id>  (516) 
CHEMBL2408080

>  <target_organism>  (516) 
Homo sapiens

>  <standard_units>  (516) 
nM

>  <record_id>  (516) 
1908419

>  <document_chembl_id>  (516) 
CHEMBL2407072

>  <bao_format>  (516) 
BAO_0000357

>  <data_validity_description>  (516) 
None

>  <activity_id>  (516) 
13394617

>  <standard_type>  (516) 
IC50

>  <target_chembl_id>  (516) 
CHEMBL205

>  <data_validity_comment>  (516) 
None

>  <published_value>  (516) 
0.112

>  <document_year>  (516) 
2013

>  <target_pref_name>  (516) 
Carbonic anhydrase II

>  <assay_chembl_id>  (516) 
CHEMBL2411710

>  <standard_relation>  (516) 
=

>  <assay_description>  (516) 
Inhibition of human recombinant CA2 using 4-nitrophenylacetate as substrate preincubated for 15 mins by stopped-flow CO2 hydration assay

>  <published_relation>  (516) 
=

>  <standard_value>  (516) 
112

>  <qudt_units>  (516) 
http://www.openphacts.org/units/Nanomolar

>  <target_tax_id>  (516) 
9606

>  <bao_label>  (516) 
single protein format

>  <published_units>  (516) 
uM

>  <pchembl_value>  (516) 
6.95

>  <published_type>  (516) 
IC50

>  <activity_comment>  (516) 
None

$$$$

     RDKit          

 31 34  0  0  0  0  0  0  0  0999 V2000
    0.0000    0.0000    0.0000 C   0  0  0  0  0  0  0  0  0  0  0  0
    0.0000    0.0000    0.0000 C   0  0  0  0  0  0  0  0  0  0  0  0
    0.0000    0.0000    0.0000 C   0  0  0  0  0  0  0  0  0  0  0  0
    0.0000    0.0000    0.0000 C   0  0  0  0  0  0  0  0  0  0  0  0
    0.0000    0.0000    0.0000 N   0  0  0  0  0  0  0  0  0  0  0  0
    0.0000    0.0000    0.0000 C   0  0  0  0  0  0  0  0  0  0  0  0
    0.0000    0.0000    0.0000 N   0  0  0  0  0  0  0  0  0  0  0  0
    0.0000    0.0000    0.0000 S   0  0  0  0  0  0  0  0  0  0  0  0
    0.0000    0.0000    0.0000 O   0  0  0  0  0  0  0  0  0  0  0  0
    0.0000    0.0000    0.0000 O   0  0  0  0  0  0  0  0  0  0  0  0
    0.0000    0.0000    0.0000 C   0  0  0  0  0  0  0  0  0  0  0  0
    0.0000    0.0000    0.0000 C   0  0  0  0  0  0  0  0  0  0  0  0
    0.0000    0.0000    0.0000 C   0  0  0  0  0  0  0  0  0  0  0  0
    0.0000    0.0000    0.0000 C   0  0  0  0  0  0  0  0  0  0  0  0
    0.0000    0.0000    0.0000 C   0  0  0  0  0  0  0  0  0  0  0  0
    0.0000    0.0000    0.0000 C   0  0  0  0  0  0  0  0  0  0  0  0
    0.0000    0.0000    0.0000 N   0  0  0  0  0  0  0  0  0  0  0  0
    0.0000    0.0000    0.0000 C   0  0  0  0  0  0  0  0  0  0  0  0
    0.0000    0.0000    0.0000 C   0  0  0  0  0  0  0  0  0  0  0  0
    0.0000    0.0000    0.0000 C   0  0  0  0  0  0  0  0  0  0  0  0
    0.0000    0.0000    0.0000 Cl  0  0  0  0  0  0  0  0  0  0  0  0
    0.0000    0.0000    0.0000 C   0  0  0  0  0  0  0  0  0  0  0  0
    0.0000    0.0000    0.0000 C   0  0  0  0  0  0  0  0  0  0  0  0
    0.0000    0.0000    0.0000 C   0  0  0  0  0  0  0  0  0  0  0  0
    0.0000    0.0000    0.0000 C   0  0  0  0  0  0  0  0  0  0  0  0
    0.0000    0.0000    0.0000 C   0  0  0  0  0  0  0  0  0  0  0  0
    0.0000    0.0000    0.0000 C   0  0  0  0  0  0  0  0  0  0  0  0
    0.0000    0.0000    0.0000 O   0  0  0  0  0  0  0  0  0  0  0  0
    0.0000    0.0000    0.0000 C   0  0  0  0  0  0  0  0  0  0  0  0
    0.0000    0.0000    0.0000 O   0  0  0  0  0  0  0  0  0  0  0  0
    0.0000    0.0000    0.0000 N   0  0  0  0  0  0  0  0  0  0  0  0
  1  2  1  0
  2  3  2  0
  3  4  1  0
  4  5  2  0
  5  6  1  0
  6  7  1  0
  7  8  1  0
  8  9  2  0
  8 10  2  0
  8 11  1  0
 11 12  2  0
 12 13  1  0
 13 14  2  0
 14 15  1  0
 15 16  2  0
 14 17  1  0
 17 18  2  0
 18 19  1  0
 19 20  2  0
 20 21  1  0
 20 22  1  0
 22 23  2  0
 23 24  1  0
 24 25  2  0
 25 26  1  0
 26 27  2  0
 27 28  1  0
 28 29  1  0
 29 30  2  0
  6 31  2  0
 31  2  1  0
 16 11  1  0
 29 19  1  0
 27 22  1  0
M  END
>  <pIC50>  (517) 
7.29

>  <ChEMBL_ID>  (517) 
CHEMBL2408079

>  <document_journal>  (517) 
Eur. J. Med. Chem.

>  <bao_endpoint>  (517) 
BAO_0000190

>  <potential_duplicate>  (517) 
False

>  <uo_units>  (517) 
UO_0000065

>  <canonical_smiles>  (517) 
Cc1ccnc(NS(=O)(=O)c2ccc(cc2)\N=C\C3=C(Cl)c4ccccc4OC3=O)n1

>  <parent_molecule_chembl_id>  (517) 
CHEMBL2408079

>  <assay_type>  (517) 
B

>  <src_id>  (517) 
1

>  <ligand_efficiency>  (517) 
{u'le': u'0.32', u'bei': u'16.03', u'sei': u'6.13', u'lle': u'4.06'}

>  <standard_flag>  (517) 
True

>  <molecule_chembl_id>  (517) 
CHEMBL2408079

>  <target_organism>  (517) 
Homo sapiens

>  <standard_units>  (517) 
nM

>  <record_id>  (517) 
1908418

>  <document_chembl_id>  (517) 
CHEMBL2407072

>  <bao_format>  (517) 
BAO_0000357

>  <data_validity_description>  (517) 
None

>  <activity_id>  (517) 
13394618

>  <standard_type>  (517) 
IC50

>  <target_chembl_id>  (517) 
CHEMBL205

>  <data_validity_comment>  (517) 
None

>  <published_value>  (517) 
0.051

>  <document_year>  (517) 
2013

>  <target_pref_name>  (517) 
Carbonic anhydrase II

>  <assay_chembl_id>  (517) 
CHEMBL2411710

>  <standard_relation>  (517) 
=

>  <assay_description>  (517) 
Inhibition of human recombinant CA2 using 4-nitrophenylacetate as substrate preincubated for 15 mins by stopped-flow CO2 hydration assay

>  <published_relation>  (517) 
=

>  <standard_value>  (517) 
51

>  <qudt_units>  (517) 
http://www.openphacts.org/units/Nanomolar

>  <target_tax_id>  (517) 
9606

>  <bao_label>  (517) 
single protein format

>  <published_units>  (517) 
uM

>  <pchembl_value>  (517) 
7.29

>  <published_type>  (517) 
IC50

>  <activity_comment>  (517) 
None

$$$$

     RDKit          

 30 33  0  0  0  0  0  0  0  0999 V2000
    0.0000    0.0000    0.0000 C   0  0  0  0  0  0  0  0  0  0  0  0
    0.0000    0.0000    0.0000 C   0  0  0  0  0  0  0  0  0  0  0  0
    0.0000    0.0000    0.0000 O   0  0  0  0  0  0  0  0  0  0  0  0
    0.0000    0.0000    0.0000 N   0  0  0  0  0  0  0  0  0  0  0  0
    0.0000    0.0000    0.0000 C   0  0  0  0  0  0  0  0  0  0  0  0
    0.0000    0.0000    0.0000 N   0  0  0  0  0  0  0  0  0  0  0  0
    0.0000    0.0000    0.0000 S   0  0  0  0  0  0  0  0  0  0  0  0
    0.0000    0.0000    0.0000 O   0  0  0  0  0  0  0  0  0  0  0  0
    0.0000    0.0000    0.0000 O   0  0  0  0  0  0  0  0  0  0  0  0
    0.0000    0.0000    0.0000 C   0  0  0  0  0  0  0  0  0  0  0  0
    0.0000    0.0000    0.0000 C   0  0  0  0  0  0  0  0  0  0  0  0
    0.0000    0.0000    0.0000 C   0  0  0  0  0  0  0  0  0  0  0  0
    0.0000    0.0000    0.0000 C   0  0  0  0  0  0  0  0  0  0  0  0
    0.0000    0.0000    0.0000 C   0  0  0  0  0  0  0  0  0  0  0  0
    0.0000    0.0000    0.0000 C   0  0  0  0  0  0  0  0  0  0  0  0
    0.0000    0.0000    0.0000 N   0  0  0  0  0  0  0  0  0  0  0  0
    0.0000    0.0000    0.0000 C   0  0  0  0  0  0  0  0  0  0  0  0
    0.0000    0.0000    0.0000 C   0  0  0  0  0  0  0  0  0  0  0  0
    0.0000    0.0000    0.0000 C   0  0  0  0  0  0  0  0  0  0  0  0
    0.0000    0.0000    0.0000 Cl  0  0  0  0  0  0  0  0  0  0  0  0
    0.0000    0.0000    0.0000 C   0  0  0  0  0  0  0  0  0  0  0  0
    0.0000    0.0000    0.0000 C   0  0  0  0  0  0  0  0  0  0  0  0
    0.0000    0.0000    0.0000 C   0  0  0  0  0  0  0  0  0  0  0  0
    0.0000    0.0000    0.0000 C   0  0  0  0  0  0  0  0  0  0  0  0
    0.0000    0.0000    0.0000 C   0  0  0  0  0  0  0  0  0  0  0  0
    0.0000    0.0000    0.0000 C   0  0  0  0  0  0  0  0  0  0  0  0
    0.0000    0.0000    0.0000 O   0  0  0  0  0  0  0  0  0  0  0  0
    0.0000    0.0000    0.0000 C   0  0  0  0  0  0  0  0  0  0  0  0
    0.0000    0.0000    0.0000 O   0  0  0  0  0  0  0  0  0  0  0  0
    0.0000    0.0000    0.0000 C   0  0  0  0  0  0  0  0  0  0  0  0
  1  2  1  0
  2  3  1  0
  3  4  1  0
  4  5  2  0
  5  6  1  0
  6  7  1  0
  7  8  2  0
  7  9  2  0
  7 10  1  0
 10 11  2  0
 11 12  1  0
 12 13  2  0
 13 14  1  0
 14 15  2  0
 13 16  1  0
 16 17  2  0
 17 18  1  0
 18 19  2  0
 19 20  1  0
 19 21  1  0
 21 22  2  0
 22 23  1  0
 23 24  2  0
 24 25  1  0
 25 26  2  0
 26 27  1  0
 27 28  1  0
 28 29  2  0
  5 30  1  0
 30  2  2  0
 15 10  1  0
 28 18  1  0
 26 21  1  0
M  END
>  <pIC50>  (518) 
7.59

>  <ChEMBL_ID>  (518) 
CHEMBL2408078

>  <document_journal>  (518) 
Eur. J. Med. Chem.

>  <bao_endpoint>  (518) 
BAO_0000190

>  <potential_duplicate>  (518) 
False

>  <uo_units>  (518) 
UO_0000065

>  <canonical_smiles>  (518) 
Cc1onc(NS(=O)(=O)c2ccc(cc2)\N=C\C3=C(Cl)c4ccccc4OC3=O)c1

>  <parent_molecule_chembl_id>  (518) 
CHEMBL2408078

>  <assay_type>  (518) 
B

>  <src_id>  (518) 
1

>  <ligand_efficiency>  (518) 
{u'le': u'0.35', u'bei': u'17.09', u'sei': u'6.36', u'lle': u'4.25'}

>  <standard_flag>  (518) 
True

>  <molecule_chembl_id>  (518) 
CHEMBL2408078

>  <target_organism>  (518) 
Homo sapiens

>  <standard_units>  (518) 
nM

>  <record_id>  (518) 
1908417

>  <document_chembl_id>  (518) 
CHEMBL2407072

>  <bao_format>  (518) 
BAO_0000357

>  <data_validity_description>  (518) 
None

>  <activity_id>  (518) 
13394619

>  <standard_type>  (518) 
IC50

>  <target_chembl_id>  (518) 
CHEMBL205

>  <data_validity_comment>  (518) 
None

>  <published_value>  (518) 
0.026

>  <document_year>  (518) 
2013

>  <target_pref_name>  (518) 
Carbonic anhydrase II

>  <assay_chembl_id>  (518) 
CHEMBL2411710

>  <standard_relation>  (518) 
=

>  <assay_description>  (518) 
Inhibition of human recombinant CA2 using 4-nitrophenylacetate as substrate preincubated for 15 mins by stopped-flow CO2 hydration assay

>  <published_relation>  (518) 
=

>  <standard_value>  (518) 
26

>  <qudt_units>  (518) 
http://www.openphacts.org/units/Nanomolar

>  <target_tax_id>  (518) 
9606

>  <bao_label>  (518) 
single protein format

>  <published_units>  (518) 
uM

>  <pchembl_value>  (518) 
7.59

>  <published_type>  (518) 
IC50

>  <activity_comment>  (518) 
None

$$$$

     RDKit          

 32 35  0  0  0  0  0  0  0  0999 V2000
    0.0000    0.0000    0.0000 C   0  0  0  0  0  0  0  0  0  0  0  0
    0.0000    0.0000    0.0000 C   0  0  0  0  0  0  0  0  0  0  0  0
    0.0000    0.0000    0.0000 C   0  0  0  0  0  0  0  0  0  0  0  0
    0.0000    0.0000    0.0000 C   0  0  0  0  0  0  0  0  0  0  0  0
    0.0000    0.0000    0.0000 C   0  0  0  0  0  0  0  0  0  0  0  0
    0.0000    0.0000    0.0000 N   0  0  0  0  0  0  0  0  0  0  0  0
    0.0000    0.0000    0.0000 C   0  0  0  0  0  0  0  0  0  0  0  0
    0.0000    0.0000    0.0000 N   0  0  0  0  0  0  0  0  0  0  0  0
    0.0000    0.0000    0.0000 S   0  0  0  0  0  0  0  0  0  0  0  0
    0.0000    0.0000    0.0000 O   0  0  0  0  0  0  0  0  0  0  0  0
    0.0000    0.0000    0.0000 O   0  0  0  0  0  0  0  0  0  0  0  0
    0.0000    0.0000    0.0000 C   0  0  0  0  0  0  0  0  0  0  0  0
    0.0000    0.0000    0.0000 C   0  0  0  0  0  0  0  0  0  0  0  0
    0.0000    0.0000    0.0000 C   0  0  0  0  0  0  0  0  0  0  0  0
    0.0000    0.0000    0.0000 C   0  0  0  0  0  0  0  0  0  0  0  0
    0.0000    0.0000    0.0000 C   0  0  0  0  0  0  0  0  0  0  0  0
    0.0000    0.0000    0.0000 C   0  0  0  0  0  0  0  0  0  0  0  0
    0.0000    0.0000    0.0000 N   0  0  0  0  0  0  0  0  0  0  0  0
    0.0000    0.0000    0.0000 C   0  0  0  0  0  0  0  0  0  0  0  0
    0.0000    0.0000    0.0000 C   0  0  0  0  0  0  0  0  0  0  0  0
    0.0000    0.0000    0.0000 C   0  0  0  0  0  0  0  0  0  0  0  0
    0.0000    0.0000    0.0000 Cl  0  0  0  0  0  0  0  0  0  0  0  0
    0.0000    0.0000    0.0000 C   0  0  0  0  0  0  0  0  0  0  0  0
    0.0000    0.0000    0.0000 C   0  0  0  0  0  0  0  0  0  0  0  0
    0.0000    0.0000    0.0000 C   0  0  0  0  0  0  0  0  0  0  0  0
    0.0000    0.0000    0.0000 C   0  0  0  0  0  0  0  0  0  0  0  0
    0.0000    0.0000    0.0000 C   0  0  0  0  0  0  0  0  0  0  0  0
    0.0000    0.0000    0.0000 C   0  0  0  0  0  0  0  0  0  0  0  0
    0.0000    0.0000    0.0000 O   0  0  0  0  0  0  0  0  0  0  0  0
    0.0000    0.0000    0.0000 C   0  0  0  0  0  0  0  0  0  0  0  0
    0.0000    0.0000    0.0000 O   0  0  0  0  0  0  0  0  0  0  0  0
    0.0000    0.0000    0.0000 N   0  0  0  0  0  0  0  0  0  0  0  0
  1  2  1  0
  2  3  2  0
  3  4  1  0
  4  5  1  0
  4  6  2  0
  6  7  1  0
  7  8  1  0
  8  9  1  0
  9 10  2  0
  9 11  2  0
  9 12  1  0
 12 13  2  0
 13 14  1  0
 14 15  2  0
 15 16  1  0
 16 17  2  0
 15 18  1  0
 18 19  2  0
 19 20  1  0
 20 21  2  0
 21 22  1  0
 21 23  1  0
 23 24  2  0
 24 25  1  0
 25 26  2  0
 26 27  1  0
 27 28  2  0
 28 29  1  0
 29 30  1  0
 30 31  2  0
  7 32  2  0
 32  2  1  0
 17 12  1  0
 30 20  1  0
 28 23  1  0
M  END
>  <pIC50>  (519) 
7.64

>  <ChEMBL_ID>  (519) 
CHEMBL2408077

>  <document_journal>  (519) 
Eur. J. Med. Chem.

>  <bao_endpoint>  (519) 
BAO_0000190

>  <potential_duplicate>  (519) 
False

>  <uo_units>  (519) 
UO_0000065

>  <canonical_smiles>  (519) 
Cc1cc(C)nc(NS(=O)(=O)c2ccc(cc2)\N=C\C3=C(Cl)c4ccccc4OC3=O)n1

>  <parent_molecule_chembl_id>  (519) 
CHEMBL2408077

>  <assay_type>  (519) 
B

>  <src_id>  (519) 
1

>  <ligand_efficiency>  (519) 
{u'le': u'0.33', u'bei': u'16.29', u'sei': u'6.42', u'lle': u'4.13'}

>  <standard_flag>  (519) 
True

>  <molecule_chembl_id>  (519) 
CHEMBL2408077

>  <target_organism>  (519) 
Homo sapiens

>  <standard_units>  (519) 
nM

>  <record_id>  (519) 
1908416

>  <document_chembl_id>  (519) 
CHEMBL2407072

>  <bao_format>  (519) 
BAO_0000357

>  <data_validity_description>  (519) 
None

>  <activity_id>  (519) 
13394620

>  <standard_type>  (519) 
IC50

>  <target_chembl_id>  (519) 
CHEMBL205

>  <data_validity_comment>  (519) 
None

>  <published_value>  (519) 
0.023

>  <document_year>  (519) 
2013

>  <target_pref_name>  (519) 
Carbonic anhydrase II

>  <assay_chembl_id>  (519) 
CHEMBL2411710

>  <standard_relation>  (519) 
=

>  <assay_description>  (519) 
Inhibition of human recombinant CA2 using 4-nitrophenylacetate as substrate preincubated for 15 mins by stopped-flow CO2 hydration assay

>  <published_relation>  (519) 
=

>  <standard_value>  (519) 
23

>  <qudt_units>  (519) 
http://www.openphacts.org/units/Nanomolar

>  <target_tax_id>  (519) 
9606

>  <bao_label>  (519) 
single protein format

>  <published_units>  (519) 
uM

>  <pchembl_value>  (519) 
7.64

>  <published_type>  (519) 
IC50

>  <activity_comment>  (519) 
None

$$$$

     RDKit          

 27 29  0  0  0  0  0  0  0  0999 V2000
    0.0000    0.0000    0.0000 N   0  0  0  0  0  0  0  0  0  0  0  0
    0.0000    0.0000    0.0000 C   0  0  0  0  0  0  0  0  0  0  0  0
    0.0000    0.0000    0.0000 N   0  0  0  0  0  0  0  0  0  0  0  0
    0.0000    0.0000    0.0000 N   0  0  0  0  0  0  0  0  0  0  0  0
    0.0000    0.0000    0.0000 S   0  0  0  0  0  0  0  0  0  0  0  0
    0.0000    0.0000    0.0000 O   0  0  0  0  0  0  0  0  0  0  0  0
    0.0000    0.0000    0.0000 O   0  0  0  0  0  0  0  0  0  0  0  0
    0.0000    0.0000    0.0000 C   0  0  0  0  0  0  0  0  0  0  0  0
    0.0000    0.0000    0.0000 C   0  0  0  0  0  0  0  0  0  0  0  0
    0.0000    0.0000    0.0000 C   0  0  0  0  0  0  0  0  0  0  0  0
    0.0000    0.0000    0.0000 C   0  0  0  0  0  0  0  0  0  0  0  0
    0.0000    0.0000    0.0000 C   0  0  0  0  0  0  0  0  0  0  0  0
    0.0000    0.0000    0.0000 C   0  0  0  0  0  0  0  0  0  0  0  0
    0.0000    0.0000    0.0000 N   0  0  0  0  0  0  0  0  0  0  0  0
    0.0000    0.0000    0.0000 C   0  0  0  0  0  0  0  0  0  0  0  0
    0.0000    0.0000    0.0000 C   0  0  0  0  0  0  0  0  0  0  0  0
    0.0000    0.0000    0.0000 C   0  0  0  0  0  0  0  0  0  0  0  0
    0.0000    0.0000    0.0000 Cl  0  0  0  0  0  0  0  0  0  0  0  0
    0.0000    0.0000    0.0000 C   0  0  0  0  0  0  0  0  0  0  0  0
    0.0000    0.0000    0.0000 C   0  0  0  0  0  0  0  0  0  0  0  0
    0.0000    0.0000    0.0000 C   0  0  0  0  0  0  0  0  0  0  0  0
    0.0000    0.0000    0.0000 C   0  0  0  0  0  0  0  0  0  0  0  0
    0.0000    0.0000    0.0000 C   0  0  0  0  0  0  0  0  0  0  0  0
    0.0000    0.0000    0.0000 C   0  0  0  0  0  0  0  0  0  0  0  0
    0.0000    0.0000    0.0000 O   0  0  0  0  0  0  0  0  0  0  0  0
    0.0000    0.0000    0.0000 C   0  0  0  0  0  0  0  0  0  0  0  0
    0.0000    0.0000    0.0000 O   0  0  0  0  0  0  0  0  0  0  0  0
  1  2  1  0
  2  3  2  0
  2  4  1  0
  4  5  1  0
  5  6  2  0
  5  7  2  0
  5  8  1  0
  8  9  2  0
  9 10  1  0
 10 11  2  0
 11 12  1  0
 12 13  2  0
 11 14  1  0
 14 15  2  0
 15 16  1  0
 16 17  2  0
 17 18  1  0
 17 19  1  0
 19 20  2  0
 20 21  1  0
 21 22  2  0
 22 23  1  0
 23 24  2  0
 24 25  1  0
 25 26  1  0
 26 27  2  0
 13  8  1  0
 26 16  1  0
 24 19  1  0
M  END
>  <pIC50>  (520) 
7.07

>  <ChEMBL_ID>  (520) 
CHEMBL2408076

>  <document_journal>  (520) 
Eur. J. Med. Chem.

>  <bao_endpoint>  (520) 
BAO_0000190

>  <potential_duplicate>  (520) 
False

>  <uo_units>  (520) 
UO_0000065

>  <canonical_smiles>  (520) 
NC(=N)NS(=O)(=O)c1ccc(cc1)\N=C\C2=C(Cl)c3ccccc3OC2=O

>  <parent_molecule_chembl_id>  (520) 
CHEMBL2408076

>  <assay_type>  (520) 
B

>  <src_id>  (520) 
1

>  <ligand_efficiency>  (520) 
{u'le': u'0.36', u'bei': u'17.47', u'sei': u'4.94', u'lle': u'4.81'}

>  <standard_flag>  (520) 
True

>  <molecule_chembl_id>  (520) 
CHEMBL2408076

>  <target_organism>  (520) 
Homo sapiens

>  <standard_units>  (520) 
nM

>  <record_id>  (520) 
1908415

>  <document_chembl_id>  (520) 
CHEMBL2407072

>  <bao_format>  (520) 
BAO_0000357

>  <data_validity_description>  (520) 
None

>  <activity_id>  (520) 
13394621

>  <standard_type>  (520) 
IC50

>  <target_chembl_id>  (520) 
CHEMBL205

>  <data_validity_comment>  (520) 
None

>  <published_value>  (520) 
0.085

>  <document_year>  (520) 
2013

>  <target_pref_name>  (520) 
Carbonic anhydrase II

>  <assay_chembl_id>  (520) 
CHEMBL2411710

>  <standard_relation>  (520) 
=

>  <assay_description>  (520) 
Inhibition of human recombinant CA2 using 4-nitrophenylacetate as substrate preincubated for 15 mins by stopped-flow CO2 hydration assay

>  <published_relation>  (520) 
=

>  <standard_value>  (520) 
85

>  <qudt_units>  (520) 
http://www.openphacts.org/units/Nanomolar

>  <target_tax_id>  (520) 
9606

>  <bao_label>  (520) 
single protein format

>  <published_units>  (520) 
uM

>  <pchembl_value>  (520) 
7.07

>  <published_type>  (520) 
IC50

>  <activity_comment>  (520) 
None

$$$$

     RDKit          

 29 32  0  0  0  0  0  0  0  0999 V2000
    0.0000    0.0000    0.0000 Cl  0  0  0  0  0  0  0  0  0  0  0  0
    0.0000    0.0000    0.0000 C   0  0  0  0  0  0  0  0  0  0  0  0
    0.0000    0.0000    0.0000 C   0  0  0  0  0  0  0  0  0  0  0  0
    0.0000    0.0000    0.0000 C   0  0  0  0  0  0  0  0  0  0  0  0
    0.0000    0.0000    0.0000 N   0  0  0  0  0  0  0  0  0  0  0  0
    0.0000    0.0000    0.0000 C   0  0  0  0  0  0  0  0  0  0  0  0
    0.0000    0.0000    0.0000 C   0  0  0  0  0  0  0  0  0  0  0  0
    0.0000    0.0000    0.0000 C   0  0  0  0  0  0  0  0  0  0  0  0
    0.0000    0.0000    0.0000 C   0  0  0  0  0  0  0  0  0  0  0  0
    0.0000    0.0000    0.0000 C   0  0  0  0  0  0  0  0  0  0  0  0
    0.0000    0.0000    0.0000 C   0  0  0  0  0  0  0  0  0  0  0  0
    0.0000    0.0000    0.0000 S   0  0  0  0  0  0  0  0  0  0  0  0
    0.0000    0.0000    0.0000 O   0  0  0  0  0  0  0  0  0  0  0  0
    0.0000    0.0000    0.0000 O   0  0  0  0  0  0  0  0  0  0  0  0
    0.0000    0.0000    0.0000 N   0  0  0  0  0  0  0  0  0  0  0  0
    0.0000    0.0000    0.0000 C   0  0  0  0  0  0  0  0  0  0  0  0
    0.0000    0.0000    0.0000 N   0  0  0  0  0  0  0  0  0  0  0  0
    0.0000    0.0000    0.0000 C   0  0  0  0  0  0  0  0  0  0  0  0
    0.0000    0.0000    0.0000 C   0  0  0  0  0  0  0  0  0  0  0  0
    0.0000    0.0000    0.0000 S   0  0  0  0  0  0  0  0  0  0  0  0
    0.0000    0.0000    0.0000 C   0  0  0  0  0  0  0  0  0  0  0  0
    0.0000    0.0000    0.0000 O   0  0  0  0  0  0  0  0  0  0  0  0
    0.0000    0.0000    0.0000 O   0  0  0  0  0  0  0  0  0  0  0  0
    0.0000    0.0000    0.0000 C   0  0  0  0  0  0  0  0  0  0  0  0
    0.0000    0.0000    0.0000 C   0  0  0  0  0  0  0  0  0  0  0  0
    0.0000    0.0000    0.0000 C   0  0  0  0  0  0  0  0  0  0  0  0
    0.0000    0.0000    0.0000 C   0  0  0  0  0  0  0  0  0  0  0  0
    0.0000    0.0000    0.0000 C   0  0  0  0  0  0  0  0  0  0  0  0
    0.0000    0.0000    0.0000 C   0  0  0  0  0  0  0  0  0  0  0  0
  1  2  1  0
  2  3  2  0
  3  4  1  0
  4  5  2  0
  5  6  1  0
  6  7  2  0
  7  8  1  0
  8  9  2  0
  9 10  1  0
 10 11  2  0
  9 12  1  0
 12 13  2  0
 12 14  2  0
 12 15  1  0
 15 16  1  0
 16 17  2  0
 17 18  1  0
 18 19  2  0
 19 20  1  0
  3 21  1  0
 21 22  2  0
 21 23  1  0
 23 24  1  0
 24 25  2  0
 25 26  1  0
 26 27  2  0
 27 28  1  0
 28 29  2  0
 29  2  1  0
 11  6  1  0
 20 16  1  0
 29 24  1  0
M  END
>  <pIC50>  (521) 
7.24

>  <ChEMBL_ID>  (521) 
CHEMBL2408075

>  <document_journal>  (521) 
Eur. J. Med. Chem.

>  <bao_endpoint>  (521) 
BAO_0000190

>  <potential_duplicate>  (521) 
False

>  <uo_units>  (521) 
UO_0000065

>  <canonical_smiles>  (521) 
ClC1=C(\C=N\c2ccc(cc2)S(=O)(=O)Nc3nccs3)C(=O)Oc4ccccc14

>  <parent_molecule_chembl_id>  (521) 
CHEMBL2408075

>  <assay_type>  (521) 
B

>  <src_id>  (521) 
1

>  <ligand_efficiency>  (521) 
{u'le': u'0.34', u'bei': u'16.23', u'sei': u'5.39', u'lle': u'4.04'}

>  <standard_flag>  (521) 
True

>  <molecule_chembl_id>  (521) 
CHEMBL2408075

>  <target_organism>  (521) 
Homo sapiens

>  <standard_units>  (521) 
nM

>  <record_id>  (521) 
1908414

>  <document_chembl_id>  (521) 
CHEMBL2407072

>  <bao_format>  (521) 
BAO_0000357

>  <data_validity_description>  (521) 
None

>  <activity_id>  (521) 
13394622

>  <standard_type>  (521) 
IC50

>  <target_chembl_id>  (521) 
CHEMBL205

>  <data_validity_comment>  (521) 
None

>  <published_value>  (521) 
0.058

>  <document_year>  (521) 
2013

>  <target_pref_name>  (521) 
Carbonic anhydrase II

>  <assay_chembl_id>  (521) 
CHEMBL2411710

>  <standard_relation>  (521) 
=

>  <assay_description>  (521) 
Inhibition of human recombinant CA2 using 4-nitrophenylacetate as substrate preincubated for 15 mins by stopped-flow CO2 hydration assay

>  <published_relation>  (521) 
=

>  <standard_value>  (521) 
58

>  <qudt_units>  (521) 
http://www.openphacts.org/units/Nanomolar

>  <target_tax_id>  (521) 
9606

>  <bao_label>  (521) 
single protein format

>  <published_units>  (521) 
uM

>  <pchembl_value>  (521) 
7.24

>  <published_type>  (521) 
IC50

>  <activity_comment>  (521) 
None

$$$$

     RDKit          

 24 26  0  0  0  0  0  0  0  0999 V2000
    0.0000    0.0000    0.0000 N   0  0  0  0  0  0  0  0  0  0  0  0
    0.0000    0.0000    0.0000 S   0  0  0  0  0  0  0  0  0  0  0  0
    0.0000    0.0000    0.0000 O   0  0  0  0  0  0  0  0  0  0  0  0
    0.0000    0.0000    0.0000 O   0  0  0  0  0  0  0  0  0  0  0  0
    0.0000    0.0000    0.0000 C   0  0  0  0  0  0  0  0  0  0  0  0
    0.0000    0.0000    0.0000 C   0  0  0  0  0  0  0  0  0  0  0  0
    0.0000    0.0000    0.0000 C   0  0  0  0  0  0  0  0  0  0  0  0
    0.0000    0.0000    0.0000 C   0  0  0  0  0  0  0  0  0  0  0  0
    0.0000    0.0000    0.0000 C   0  0  0  0  0  0  0  0  0  0  0  0
    0.0000    0.0000    0.0000 C   0  0  0  0  0  0  0  0  0  0  0  0
    0.0000    0.0000    0.0000 N   0  0  0  0  0  0  0  0  0  0  0  0
    0.0000    0.0000    0.0000 C   0  0  0  0  0  0  0  0  0  0  0  0
    0.0000    0.0000    0.0000 C   0  0  0  0  0  0  0  0  0  0  0  0
    0.0000    0.0000    0.0000 C   0  0  0  0  0  0  0  0  0  0  0  0
    0.0000    0.0000    0.0000 Cl  0  0  0  0  0  0  0  0  0  0  0  0
    0.0000    0.0000    0.0000 C   0  0  0  0  0  0  0  0  0  0  0  0
    0.0000    0.0000    0.0000 C   0  0  0  0  0  0  0  0  0  0  0  0
    0.0000    0.0000    0.0000 C   0  0  0  0  0  0  0  0  0  0  0  0
    0.0000    0.0000    0.0000 C   0  0  0  0  0  0  0  0  0  0  0  0
    0.0000    0.0000    0.0000 C   0  0  0  0  0  0  0  0  0  0  0  0
    0.0000    0.0000    0.0000 C   0  0  0  0  0  0  0  0  0  0  0  0
    0.0000    0.0000    0.0000 O   0  0  0  0  0  0  0  0  0  0  0  0
    0.0000    0.0000    0.0000 C   0  0  0  0  0  0  0  0  0  0  0  0
    0.0000    0.0000    0.0000 O   0  0  0  0  0  0  0  0  0  0  0  0
  1  2  1  0
  2  3  2  0
  2  4  2  0
  2  5  1  0
  5  6  2  0
  6  7  1  0
  7  8  2  0
  8  9  1  0
  9 10  2  0
  8 11  1  0
 11 12  2  0
 12 13  1  0
 13 14  2  0
 14 15  1  0
 14 16  1  0
 16 17  2  0
 17 18  1  0
 18 19  2  0
 19 20  1  0
 20 21  2  0
 21 22  1  0
 22 23  1  0
 23 24  2  0
 10  5  1  0
 23 13  1  0
 21 16  1  0
M  END
>  <pIC50>  (522) 
7.48

>  <ChEMBL_ID>  (522) 
CHEMBL2408074

>  <document_journal>  (522) 
Eur. J. Med. Chem.

>  <bao_endpoint>  (522) 
BAO_0000190

>  <potential_duplicate>  (522) 
False

>  <uo_units>  (522) 
UO_0000065

>  <canonical_smiles>  (522) 
NS(=O)(=O)c1ccc(cc1)\N=C\C2=C(Cl)c3ccccc3OC2=O

>  <parent_molecule_chembl_id>  (522) 
CHEMBL2408074

>  <assay_type>  (522) 
B

>  <src_id>  (522) 
1

>  <ligand_efficiency>  (522) 
{u'le': u'0.43', u'bei': u'20.62', u'sei': u'6.98', u'lle': u'5.06'}

>  <standard_flag>  (522) 
True

>  <molecule_chembl_id>  (522) 
CHEMBL2408074

>  <target_organism>  (522) 
Homo sapiens

>  <standard_units>  (522) 
nM

>  <record_id>  (522) 
1908413

>  <document_chembl_id>  (522) 
CHEMBL2407072

>  <bao_format>  (522) 
BAO_0000357

>  <data_validity_description>  (522) 
None

>  <activity_id>  (522) 
13394623

>  <standard_type>  (522) 
IC50

>  <target_chembl_id>  (522) 
CHEMBL205

>  <data_validity_comment>  (522) 
None

>  <published_value>  (522) 
0.033

>  <document_year>  (522) 
2013

>  <target_pref_name>  (522) 
Carbonic anhydrase II

>  <assay_chembl_id>  (522) 
CHEMBL2411710

>  <standard_relation>  (522) 
=

>  <assay_description>  (522) 
Inhibition of human recombinant CA2 using 4-nitrophenylacetate as substrate preincubated for 15 mins by stopped-flow CO2 hydration assay

>  <published_relation>  (522) 
=

>  <standard_value>  (522) 
33

>  <qudt_units>  (522) 
http://www.openphacts.org/units/Nanomolar

>  <target_tax_id>  (522) 
9606

>  <bao_label>  (522) 
single protein format

>  <published_units>  (522) 
uM

>  <pchembl_value>  (522) 
7.48

>  <published_type>  (522) 
IC50

>  <activity_comment>  (522) 
None

$$$$

     RDKit          

 16 17  0  0  0  0  0  0  0  0999 V2000
    0.0000    0.0000    0.0000 N   0  0  0  0  0  0  0  0  0  0  0  0
    0.0000    0.0000    0.0000 S   0  0  0  0  0  0  0  0  0  0  0  0
    0.0000    0.0000    0.0000 O   0  0  0  0  0  0  0  0  0  0  0  0
    0.0000    0.0000    0.0000 O   0  0  0  0  0  0  0  0  0  0  0  0
    0.0000    0.0000    0.0000 N   0  0  0  0  0  0  0  0  0  0  0  0
    0.0000    0.0000    0.0000 C   0  0  0  0  0  0  0  0  0  0  0  0
    0.0000    0.0000    0.0000 C   0  0  0  0  0  0  0  0  0  0  0  0
    0.0000    0.0000    0.0000 C   0  0  0  0  0  0  0  0  0  0  0  0
    0.0000    0.0000    0.0000 O   0  0  0  0  0  0  0  0  0  0  0  0
    0.0000    0.0000    0.0000 C   0  0  0  0  0  0  0  0  0  0  0  0
    0.0000    0.0000    0.0000 C   0  0  0  0  0  0  0  0  0  0  0  0
    0.0000    0.0000    0.0000 C   0  0  0  0  0  0  0  0  0  0  0  0
    0.0000    0.0000    0.0000 C   0  0  0  0  0  0  0  0  0  0  0  0
    0.0000    0.0000    0.0000 C   0  0  0  0  0  0  0  0  0  0  0  0
    0.0000    0.0000    0.0000 C   0  0  0  0  0  0  0  0  0  0  0  0
    0.0000    0.0000    0.0000 O   0  0  0  0  0  0  0  0  0  0  0  0
  1  2  1  0
  2  3  2  0
  2  4  2  0
  2  5  1  0
  5  6  1  0
  6  7  1  0
  7  8  1  0
  8  9  1  0
  9 10  1  0
 10 11  2  0
 11 12  1  0
 12 13  2  0
 13 14  1  0
 14 15  2  0
 15 16  1  0
 16  7  1  0
 15 10  1  0
M  END
>  <pIC50>  (523) 
4.01

>  <ChEMBL_ID>  (523) 
CHEMBL3092997

>  <document_journal>  (523) 
J. Med. Chem.

>  <bao_endpoint>  (523) 
BAO_0000190

>  <potential_duplicate>  (523) 
False

>  <uo_units>  (523) 
UO_0000065

>  <canonical_smiles>  (523) 
NS(=O)(=O)NC[C@H]1COc2ccccc2O1

>  <parent_molecule_chembl_id>  (523) 
CHEMBL3092997

>  <assay_type>  (523) 
B

>  <src_id>  (523) 
1

>  <ligand_efficiency>  (523) 
{u'le': u'0.34', u'bei': u'16.43', u'sei': u'4.05', u'lle': u'4.2'}

>  <standard_flag>  (523) 
True

>  <molecule_chembl_id>  (523) 
CHEMBL3092997

>  <target_organism>  (523) 
Homo sapiens

>  <standard_units>  (523) 
nM

>  <record_id>  (523) 
1952922

>  <document_chembl_id>  (523) 
CHEMBL3091339

>  <bao_format>  (523) 
BAO_0000357

>  <data_validity_description>  (523) 
None

>  <activity_id>  (523) 
13859055

>  <standard_type>  (523) 
IC50

>  <target_chembl_id>  (523) 
CHEMBL205

>  <data_validity_comment>  (523) 
None

>  <published_value>  (523) 
97

>  <document_year>  (523) 
2013

>  <target_pref_name>  (523) 
Carbonic anhydrase II

>  <assay_chembl_id>  (523) 
CHEMBL3097934

>  <standard_relation>  (523) 
=

>  <assay_description>  (523) 
Inhibition of human carbonic anhydrase 2 by CO2 hydration assay

>  <published_relation>  (523) 
=

>  <standard_value>  (523) 
97000

>  <qudt_units>  (523) 
http://www.openphacts.org/units/Nanomolar

>  <target_tax_id>  (523) 
9606

>  <bao_label>  (523) 
single protein format

>  <published_units>  (523) 
uM

>  <pchembl_value>  (523) 
4.01

>  <published_type>  (523) 
IC50

>  <activity_comment>  (523) 
None

$$$$

     RDKit          

 17 18  0  0  0  0  0  0  0  0999 V2000
    0.0000    0.0000    0.0000 C   0  0  0  0  0  0  0  0  0  0  0  0
    0.0000    0.0000    0.0000 N   0  0  0  0  0  0  0  0  0  0  0  0
    0.0000    0.0000    0.0000 C   0  0  0  0  0  0  0  0  0  0  0  0
    0.0000    0.0000    0.0000 C   0  0  0  0  0  0  0  0  0  0  0  0
    0.0000    0.0000    0.0000 C   0  0  0  0  0  0  0  0  0  0  0  0
    0.0000    0.0000    0.0000 O   0  0  0  0  0  0  0  0  0  0  0  0
    0.0000    0.0000    0.0000 C   0  0  0  0  0  0  0  0  0  0  0  0
    0.0000    0.0000    0.0000 C   0  0  0  0  0  0  0  0  0  0  0  0
    0.0000    0.0000    0.0000 C   0  0  0  0  0  0  0  0  0  0  0  0
    0.0000    0.0000    0.0000 C   0  0  0  0  0  0  0  0  0  0  0  0
    0.0000    0.0000    0.0000 C   0  0  0  0  0  0  0  0  0  0  0  0
    0.0000    0.0000    0.0000 C   0  0  0  0  0  0  0  0  0  0  0  0
    0.0000    0.0000    0.0000 O   0  0  0  0  0  0  0  0  0  0  0  0
    0.0000    0.0000    0.0000 S   0  0  0  0  0  0  0  0  0  0  0  0
    0.0000    0.0000    0.0000 O   0  0  0  0  0  0  0  0  0  0  0  0
    0.0000    0.0000    0.0000 O   0  0  0  0  0  0  0  0  0  0  0  0
    0.0000    0.0000    0.0000 N   0  0  0  0  0  0  0  0  0  0  0  0
  1  2  1  0
  2  3  1  0
  3  4  1  0
  4  5  1  0
  5  6  1  0
  6  7  1  0
  7  8  2  0
  8  9  1  0
  9 10  2  0
 10 11  1  0
 11 12  2  0
 12 13  1  0
  2 14  1  0
 14 15  2  0
 14 16  2  0
 14 17  1  0
 13  4  1  0
 12  7  1  0
M  END
>  <pIC50>  (524) 
4.07

>  <ChEMBL_ID>  (524) 
CHEMBL3092999

>  <document_journal>  (524) 
J. Med. Chem.

>  <bao_endpoint>  (524) 
BAO_0000190

>  <potential_duplicate>  (524) 
False

>  <uo_units>  (524) 
UO_0000065

>  <canonical_smiles>  (524) 
CN(CC1COc2ccccc2O1)S(=O)(=O)N

>  <parent_molecule_chembl_id>  (524) 
CHEMBL3092999

>  <assay_type>  (524) 
B

>  <src_id>  (524) 
1

>  <ligand_efficiency>  (524) 
{u'le': u'0.33', u'bei': u'15.76', u'sei': u'4.51', u'lle': u'4.06'}

>  <standard_flag>  (524) 
True

>  <molecule_chembl_id>  (524) 
CHEMBL3092999

>  <target_organism>  (524) 
Homo sapiens

>  <standard_units>  (524) 
nM

>  <record_id>  (524) 
1952924

>  <document_chembl_id>  (524) 
CHEMBL3091339

>  <bao_format>  (524) 
BAO_0000357

>  <data_validity_description>  (524) 
None

>  <activity_id>  (524) 
13859061

>  <standard_type>  (524) 
IC50

>  <target_chembl_id>  (524) 
CHEMBL205

>  <data_validity_comment>  (524) 
None

>  <published_value>  (524) 
85

>  <document_year>  (524) 
2013

>  <target_pref_name>  (524) 
Carbonic anhydrase II

>  <assay_chembl_id>  (524) 
CHEMBL3097934

>  <standard_relation>  (524) 
=

>  <assay_description>  (524) 
Inhibition of human carbonic anhydrase 2 by CO2 hydration assay

>  <published_relation>  (524) 
=

>  <standard_value>  (524) 
85000

>  <qudt_units>  (524) 
http://www.openphacts.org/units/Nanomolar

>  <target_tax_id>  (524) 
9606

>  <bao_label>  (524) 
single protein format

>  <published_units>  (524) 
uM

>  <pchembl_value>  (524) 
4.07

>  <published_type>  (524) 
IC50

>  <activity_comment>  (524) 
None

$$$$

     RDKit          

 16 17  0  0  0  0  0  0  0  0999 V2000
    0.0000    0.0000    0.0000 N   0  0  0  0  0  0  0  0  0  0  0  0
    0.0000    0.0000    0.0000 S   0  0  0  0  0  0  0  0  0  0  0  0
    0.0000    0.0000    0.0000 O   0  0  0  0  0  0  0  0  0  0  0  0
    0.0000    0.0000    0.0000 O   0  0  0  0  0  0  0  0  0  0  0  0
    0.0000    0.0000    0.0000 N   0  0  0  0  0  0  0  0  0  0  0  0
    0.0000    0.0000    0.0000 C   0  0  0  0  0  0  0  0  0  0  0  0
    0.0000    0.0000    0.0000 C   0  0  0  0  0  0  0  0  0  0  0  0
    0.0000    0.0000    0.0000 C   0  0  0  0  0  0  0  0  0  0  0  0
    0.0000    0.0000    0.0000 O   0  0  0  0  0  0  0  0  0  0  0  0
    0.0000    0.0000    0.0000 C   0  0  0  0  0  0  0  0  0  0  0  0
    0.0000    0.0000    0.0000 C   0  0  0  0  0  0  0  0  0  0  0  0
    0.0000    0.0000    0.0000 C   0  0  0  0  0  0  0  0  0  0  0  0
    0.0000    0.0000    0.0000 C   0  0  0  0  0  0  0  0  0  0  0  0
    0.0000    0.0000    0.0000 C   0  0  0  0  0  0  0  0  0  0  0  0
    0.0000    0.0000    0.0000 C   0  0  0  0  0  0  0  0  0  0  0  0
    0.0000    0.0000    0.0000 O   0  0  0  0  0  0  0  0  0  0  0  0
  1  2  1  0
  2  3  2  0
  2  4  2  0
  2  5  1  0
  5  6  1  0
  6  7  1  0
  7  8  1  0
  8  9  1  0
  9 10  1  0
 10 11  2  0
 11 12  1  0
 12 13  2  0
 13 14  1  0
 14 15  2  0
 15 16  1  0
 16  7  1  0
 15 10  1  0
M  END
>  <pIC50>  (525) 
4.11

>  <ChEMBL_ID>  (525) 
CHEMBL3092998

>  <document_journal>  (525) 
J. Med. Chem.

>  <bao_endpoint>  (525) 
BAO_0000190

>  <potential_duplicate>  (525) 
False

>  <uo_units>  (525) 
UO_0000065

>  <canonical_smiles>  (525) 
NS(=O)(=O)NC[C@@H]1COc2ccccc2O1

>  <parent_molecule_chembl_id>  (525) 
CHEMBL3092998

>  <assay_type>  (525) 
B

>  <src_id>  (525) 
1

>  <ligand_efficiency>  (525) 
{u'le': u'0.35', u'bei': u'16.84', u'sei': u'4.15', u'lle': u'4.3'}

>  <standard_flag>  (525) 
True

>  <molecule_chembl_id>  (525) 
CHEMBL3092998

>  <target_organism>  (525) 
Homo sapiens

>  <standard_units>  (525) 
nM

>  <record_id>  (525) 
1952923

>  <document_chembl_id>  (525) 
CHEMBL3091339

>  <bao_format>  (525) 
BAO_0000357

>  <data_validity_description>  (525) 
None

>  <activity_id>  (525) 
13859064

>  <standard_type>  (525) 
IC50

>  <target_chembl_id>  (525) 
CHEMBL205

>  <data_validity_comment>  (525) 
None

>  <published_value>  (525) 
77

>  <document_year>  (525) 
2013

>  <target_pref_name>  (525) 
Carbonic anhydrase II

>  <assay_chembl_id>  (525) 
CHEMBL3097934

>  <standard_relation>  (525) 
=

>  <assay_description>  (525) 
Inhibition of human carbonic anhydrase 2 by CO2 hydration assay

>  <published_relation>  (525) 
=

>  <standard_value>  (525) 
77000

>  <qudt_units>  (525) 
http://www.openphacts.org/units/Nanomolar

>  <target_tax_id>  (525) 
9606

>  <bao_label>  (525) 
single protein format

>  <published_units>  (525) 
uM

>  <pchembl_value>  (525) 
4.11

>  <published_type>  (525) 
IC50

>  <activity_comment>  (525) 
None

$$$$

     RDKit          

 17 18  0  0  0  0  0  0  0  0999 V2000
    0.0000    0.0000    0.0000 N   0  0  0  0  0  0  0  0  0  0  0  0
    0.0000    0.0000    0.0000 S   0  0  0  0  0  0  0  0  0  0  0  0
    0.0000    0.0000    0.0000 O   0  0  0  0  0  0  0  0  0  0  0  0
    0.0000    0.0000    0.0000 O   0  0  0  0  0  0  0  0  0  0  0  0
    0.0000    0.0000    0.0000 N   0  0  0  0  0  0  0  0  0  0  0  0
    0.0000    0.0000    0.0000 C   0  0  0  0  0  0  0  0  0  0  0  0
    0.0000    0.0000    0.0000 C   0  0  0  0  0  0  0  0  0  0  0  0
    0.0000    0.0000    0.0000 C   0  0  0  0  0  0  0  0  0  0  0  0
    0.0000    0.0000    0.0000 O   0  0  0  0  0  0  0  0  0  0  0  0
    0.0000    0.0000    0.0000 C   0  0  0  0  0  0  0  0  0  0  0  0
    0.0000    0.0000    0.0000 C   0  0  0  0  0  0  0  0  0  0  0  0
    0.0000    0.0000    0.0000 C   0  0  0  0  0  0  0  0  0  0  0  0
    0.0000    0.0000    0.0000 F   0  0  0  0  0  0  0  0  0  0  0  0
    0.0000    0.0000    0.0000 C   0  0  0  0  0  0  0  0  0  0  0  0
    0.0000    0.0000    0.0000 C   0  0  0  0  0  0  0  0  0  0  0  0
    0.0000    0.0000    0.0000 C   0  0  0  0  0  0  0  0  0  0  0  0
    0.0000    0.0000    0.0000 O   0  0  0  0  0  0  0  0  0  0  0  0
  1  2  1  0
  2  3  2  0
  2  4  2  0
  2  5  1  0
  5  6  1  0
  6  7  1  0
  7  8  1  0
  8  9  1  0
  9 10  1  0
 10 11  2  0
 11 12  1  0
 12 13  1  0
 12 14  2  0
 14 15  1  0
 15 16  2  0
 16 17  1  0
 17  7  1  0
 16 10  1  0
M  END
>  <pIC50>  (526) 
4.13

>  <ChEMBL_ID>  (526) 
CHEMBL3093006

>  <document_journal>  (526) 
J. Med. Chem.

>  <bao_endpoint>  (526) 
BAO_0000190

>  <potential_duplicate>  (526) 
False

>  <uo_units>  (526) 
UO_0000065

>  <canonical_smiles>  (526) 
NS(=O)(=O)NC[C@H]1COc2cc(F)ccc2O1

>  <parent_molecule_chembl_id>  (526) 
CHEMBL3093006

>  <assay_type>  (526) 
B

>  <src_id>  (526) 
1

>  <ligand_efficiency>  (526) 
{u'le': u'0.33', u'bei': u'15.73', u'sei': u'4.17', u'lle': u'4.11'}

>  <standard_flag>  (526) 
True

>  <molecule_chembl_id>  (526) 
CHEMBL3093006

>  <target_organism>  (526) 
Homo sapiens

>  <standard_units>  (526) 
nM

>  <record_id>  (526) 
1952932

>  <document_chembl_id>  (526) 
CHEMBL3091339

>  <bao_format>  (526) 
BAO_0000357

>  <data_validity_description>  (526) 
None

>  <activity_id>  (526) 
13859065

>  <standard_type>  (526) 
IC50

>  <target_chembl_id>  (526) 
CHEMBL205

>  <data_validity_comment>  (526) 
None

>  <published_value>  (526) 
75

>  <document_year>  (526) 
2013

>  <target_pref_name>  (526) 
Carbonic anhydrase II

>  <assay_chembl_id>  (526) 
CHEMBL3097934

>  <standard_relation>  (526) 
=

>  <assay_description>  (526) 
Inhibition of human carbonic anhydrase 2 by CO2 hydration assay

>  <published_relation>  (526) 
=

>  <standard_value>  (526) 
75000

>  <qudt_units>  (526) 
http://www.openphacts.org/units/Nanomolar

>  <target_tax_id>  (526) 
9606

>  <bao_label>  (526) 
single protein format

>  <published_units>  (526) 
uM

>  <pchembl_value>  (526) 
4.13

>  <published_type>  (526) 
IC50

>  <activity_comment>  (526) 
None

$$$$

     RDKit          

 15 16  0  0  0  0  0  0  0  0999 V2000
    0.0000    0.0000    0.0000 N   0  0  0  0  0  0  0  0  0  0  0  0
    0.0000    0.0000    0.0000 S   0  0  0  0  0  0  0  0  0  0  0  0
    0.0000    0.0000    0.0000 O   0  0  0  0  0  0  0  0  0  0  0  0
    0.0000    0.0000    0.0000 O   0  0  0  0  0  0  0  0  0  0  0  0
    0.0000    0.0000    0.0000 N   0  0  0  0  0  0  0  0  0  0  0  0
    0.0000    0.0000    0.0000 C   0  0  0  0  0  0  0  0  0  0  0  0
    0.0000    0.0000    0.0000 C   0  0  0  0  0  0  0  0  0  0  0  0
    0.0000    0.0000    0.0000 O   0  0  0  0  0  0  0  0  0  0  0  0
    0.0000    0.0000    0.0000 C   0  0  0  0  0  0  0  0  0  0  0  0
    0.0000    0.0000    0.0000 C   0  0  0  0  0  0  0  0  0  0  0  0
    0.0000    0.0000    0.0000 C   0  0  0  0  0  0  0  0  0  0  0  0
    0.0000    0.0000    0.0000 C   0  0  0  0  0  0  0  0  0  0  0  0
    0.0000    0.0000    0.0000 C   0  0  0  0  0  0  0  0  0  0  0  0
    0.0000    0.0000    0.0000 C   0  0  0  0  0  0  0  0  0  0  0  0
    0.0000    0.0000    0.0000 O   0  0  0  0  0  0  0  0  0  0  0  0
  1  2  1  0
  2  3  2  0
  2  4  2  0
  2  5  1  0
  5  6  1  0
  6  7  1  0
  7  8  1  0
  8  9  1  0
  9 10  2  0
 10 11  1  0
 11 12  2  0
 12 13  1  0
 13 14  2  0
 14 15  1  0
 15  7  1  0
 14  9  1  0
M  END
>  <pIC50>  (527) 
4.15

>  <ChEMBL_ID>  (527) 
CHEMBL177623

>  <document_journal>  (527) 
J. Med. Chem.

>  <bao_endpoint>  (527) 
BAO_0000190

>  <potential_duplicate>  (527) 
False

>  <uo_units>  (527) 
UO_0000065

>  <canonical_smiles>  (527) 
NS(=O)(=O)NCC1Oc2ccccc2O1

>  <parent_molecule_chembl_id>  (527) 
CHEMBL177623

>  <assay_type>  (527) 
B

>  <src_id>  (527) 
1

>  <ligand_efficiency>  (527) 
{u'le': u'0.38', u'bei': u'18.02', u'sei': u'4.19', u'lle': u'4.17'}

>  <standard_flag>  (527) 
True

>  <molecule_chembl_id>  (527) 
CHEMBL177623

>  <target_organism>  (527) 
Homo sapiens

>  <standard_units>  (527) 
nM

>  <record_id>  (527) 
1952937

>  <document_chembl_id>  (527) 
CHEMBL3091339

>  <bao_format>  (527) 
BAO_0000357

>  <data_validity_description>  (527) 
None

>  <activity_id>  (527) 
13859067

>  <standard_type>  (527) 
IC50

>  <target_chembl_id>  (527) 
CHEMBL205

>  <data_validity_comment>  (527) 
None

>  <published_value>  (527) 
71

>  <document_year>  (527) 
2013

>  <target_pref_name>  (527) 
Carbonic anhydrase II

>  <assay_chembl_id>  (527) 
CHEMBL3097934

>  <standard_relation>  (527) 
=

>  <assay_description>  (527) 
Inhibition of human carbonic anhydrase 2 by CO2 hydration assay

>  <published_relation>  (527) 
=

>  <standard_value>  (527) 
71000

>  <qudt_units>  (527) 
http://www.openphacts.org/units/Nanomolar

>  <target_tax_id>  (527) 
9606

>  <bao_label>  (527) 
single protein format

>  <published_units>  (527) 
uM

>  <pchembl_value>  (527) 
4.15

>  <published_type>  (527) 
IC50

>  <activity_comment>  (527) 
None

$$$$

     RDKit          

 17 18  0  0  0  0  0  0  0  0999 V2000
    0.0000    0.0000    0.0000 N   0  0  0  0  0  0  0  0  0  0  0  0
    0.0000    0.0000    0.0000 S   0  0  0  0  0  0  0  0  0  0  0  0
    0.0000    0.0000    0.0000 O   0  0  0  0  0  0  0  0  0  0  0  0
    0.0000    0.0000    0.0000 O   0  0  0  0  0  0  0  0  0  0  0  0
    0.0000    0.0000    0.0000 N   0  0  0  0  0  0  0  0  0  0  0  0
    0.0000    0.0000    0.0000 C   0  0  0  0  0  0  0  0  0  0  0  0
    0.0000    0.0000    0.0000 C   0  0  0  0  0  0  0  0  0  0  0  0
    0.0000    0.0000    0.0000 C   0  0  0  0  0  0  0  0  0  0  0  0
    0.0000    0.0000    0.0000 O   0  0  0  0  0  0  0  0  0  0  0  0
    0.0000    0.0000    0.0000 C   0  0  0  0  0  0  0  0  0  0  0  0
    0.0000    0.0000    0.0000 C   0  0  0  0  0  0  0  0  0  0  0  0
    0.0000    0.0000    0.0000 F   0  0  0  0  0  0  0  0  0  0  0  0
    0.0000    0.0000    0.0000 C   0  0  0  0  0  0  0  0  0  0  0  0
    0.0000    0.0000    0.0000 C   0  0  0  0  0  0  0  0  0  0  0  0
    0.0000    0.0000    0.0000 C   0  0  0  0  0  0  0  0  0  0  0  0
    0.0000    0.0000    0.0000 C   0  0  0  0  0  0  0  0  0  0  0  0
    0.0000    0.0000    0.0000 O   0  0  0  0  0  0  0  0  0  0  0  0
  1  2  1  0
  2  3  2  0
  2  4  2  0
  2  5  1  0
  5  6  1  0
  6  7  1  0
  7  8  1  0
  8  9  1  0
  9 10  1  0
 10 11  2  0
 11 12  1  0
 11 13  1  0
 13 14  2  0
 14 15  1  0
 15 16  2  0
 16 17  1  0
 17  7  1  0
 16 10  1  0
M  END
>  <pIC50>  (528) 
4.16

>  <ChEMBL_ID>  (528) 
CHEMBL3093005

>  <document_journal>  (528) 
J. Med. Chem.

>  <bao_endpoint>  (528) 
BAO_0000190

>  <potential_duplicate>  (528) 
False

>  <uo_units>  (528) 
UO_0000065

>  <canonical_smiles>  (528) 
NS(=O)(=O)NC[C@H]1COc2c(F)cccc2O1

>  <parent_molecule_chembl_id>  (528) 
CHEMBL3093005

>  <assay_type>  (528) 
B

>  <src_id>  (528) 
1

>  <ligand_efficiency>  (528) 
{u'le': u'0.33', u'bei': u'15.84', u'sei': u'4.2', u'lle': u'4.14'}

>  <standard_flag>  (528) 
True

>  <molecule_chembl_id>  (528) 
CHEMBL3093005

>  <target_organism>  (528) 
Homo sapiens

>  <standard_units>  (528) 
nM

>  <record_id>  (528) 
1952931

>  <document_chembl_id>  (528) 
CHEMBL3091339

>  <bao_format>  (528) 
BAO_0000357

>  <data_validity_description>  (528) 
None

>  <activity_id>  (528) 
13859069

>  <standard_type>  (528) 
IC50

>  <target_chembl_id>  (528) 
CHEMBL205

>  <data_validity_comment>  (528) 
None

>  <published_value>  (528) 
70

>  <document_year>  (528) 
2013

>  <target_pref_name>  (528) 
Carbonic anhydrase II

>  <assay_chembl_id>  (528) 
CHEMBL3097934

>  <standard_relation>  (528) 
=

>  <assay_description>  (528) 
Inhibition of human carbonic anhydrase 2 by CO2 hydration assay

>  <published_relation>  (528) 
=

>  <standard_value>  (528) 
70000

>  <qudt_units>  (528) 
http://www.openphacts.org/units/Nanomolar

>  <target_tax_id>  (528) 
9606

>  <bao_label>  (528) 
single protein format

>  <published_units>  (528) 
uM

>  <pchembl_value>  (528) 
4.16

>  <published_type>  (528) 
IC50

>  <activity_comment>  (528) 
None

$$$$

     RDKit          

 17 18  0  0  0  0  0  0  0  0999 V2000
    0.0000    0.0000    0.0000 N   0  0  0  0  0  0  0  0  0  0  0  0
    0.0000    0.0000    0.0000 S   0  0  0  0  0  0  0  0  0  0  0  0
    0.0000    0.0000    0.0000 O   0  0  0  0  0  0  0  0  0  0  0  0
    0.0000    0.0000    0.0000 O   0  0  0  0  0  0  0  0  0  0  0  0
    0.0000    0.0000    0.0000 N   0  0  0  0  0  0  0  0  0  0  0  0
    0.0000    0.0000    0.0000 C   0  0  0  0  0  0  0  0  0  0  0  0
    0.0000    0.0000    0.0000 C   0  0  0  0  0  0  0  0  0  0  0  0
    0.0000    0.0000    0.0000 C   0  0  0  0  0  0  0  0  0  0  0  0
    0.0000    0.0000    0.0000 O   0  0  0  0  0  0  0  0  0  0  0  0
    0.0000    0.0000    0.0000 C   0  0  0  0  0  0  0  0  0  0  0  0
    0.0000    0.0000    0.0000 C   0  0  0  0  0  0  0  0  0  0  0  0
    0.0000    0.0000    0.0000 C   0  0  0  0  0  0  0  0  0  0  0  0
    0.0000    0.0000    0.0000 C   0  0  0  0  0  0  0  0  0  0  0  0
    0.0000    0.0000    0.0000 C   0  0  0  0  0  0  0  0  0  0  0  0
    0.0000    0.0000    0.0000 Cl  0  0  0  0  0  0  0  0  0  0  0  0
    0.0000    0.0000    0.0000 C   0  0  0  0  0  0  0  0  0  0  0  0
    0.0000    0.0000    0.0000 O   0  0  0  0  0  0  0  0  0  0  0  0
  1  2  1  0
  2  3  2  0
  2  4  2  0
  2  5  1  0
  5  6  1  0
  6  7  1  0
  7  8  1  0
  8  9  1  0
  9 10  1  0
 10 11  2  0
 11 12  1  0
 12 13  2  0
 13 14  1  0
 14 15  1  0
 14 16  2  0
 16 17  1  0
 17  7  1  0
 16 10  1  0
M  END
>  <pIC50>  (529) 
4.25

>  <ChEMBL_ID>  (529) 
CHEMBL3093004

>  <document_journal>  (529) 
J. Med. Chem.

>  <bao_endpoint>  (529) 
BAO_0000190

>  <potential_duplicate>  (529) 
False

>  <uo_units>  (529) 
UO_0000065

>  <canonical_smiles>  (529) 
NS(=O)(=O)NC[C@H]1COc2cccc(Cl)c2O1

>  <parent_molecule_chembl_id>  (529) 
CHEMBL3093004

>  <assay_type>  (529) 
B

>  <src_id>  (529) 
1

>  <ligand_efficiency>  (529) 
{u'le': u'0.34', u'bei': u'15.26', u'sei': u'4.29', u'lle': u'3.78'}

>  <standard_flag>  (529) 
True

>  <molecule_chembl_id>  (529) 
CHEMBL3093004

>  <target_organism>  (529) 
Homo sapiens

>  <standard_units>  (529) 
nM

>  <record_id>  (529) 
1952930

>  <document_chembl_id>  (529) 
CHEMBL3091339

>  <bao_format>  (529) 
BAO_0000357

>  <data_validity_description>  (529) 
None

>  <activity_id>  (529) 
13859073

>  <standard_type>  (529) 
IC50

>  <target_chembl_id>  (529) 
CHEMBL205

>  <data_validity_comment>  (529) 
None

>  <published_value>  (529) 
56

>  <document_year>  (529) 
2013

>  <target_pref_name>  (529) 
Carbonic anhydrase II

>  <assay_chembl_id>  (529) 
CHEMBL3097934

>  <standard_relation>  (529) 
=

>  <assay_description>  (529) 
Inhibition of human carbonic anhydrase 2 by CO2 hydration assay

>  <published_relation>  (529) 
=

>  <standard_value>  (529) 
56000

>  <qudt_units>  (529) 
http://www.openphacts.org/units/Nanomolar

>  <target_tax_id>  (529) 
9606

>  <bao_label>  (529) 
single protein format

>  <published_units>  (529) 
uM

>  <pchembl_value>  (529) 
4.25

>  <published_type>  (529) 
IC50

>  <activity_comment>  (529) 
None

$$$$

     RDKit          

 17 18  0  0  0  0  0  0  0  0999 V2000
    0.0000    0.0000    0.0000 N   0  0  0  0  0  0  0  0  0  0  0  0
    0.0000    0.0000    0.0000 S   0  0  0  0  0  0  0  0  0  0  0  0
    0.0000    0.0000    0.0000 O   0  0  0  0  0  0  0  0  0  0  0  0
    0.0000    0.0000    0.0000 O   0  0  0  0  0  0  0  0  0  0  0  0
    0.0000    0.0000    0.0000 N   0  0  0  0  0  0  0  0  0  0  0  0
    0.0000    0.0000    0.0000 C   0  0  0  0  0  0  0  0  0  0  0  0
    0.0000    0.0000    0.0000 C   0  0  0  0  0  0  0  0  0  0  0  0
    0.0000    0.0000    0.0000 C   0  0  0  0  0  0  0  0  0  0  0  0
    0.0000    0.0000    0.0000 O   0  0  0  0  0  0  0  0  0  0  0  0
    0.0000    0.0000    0.0000 C   0  0  0  0  0  0  0  0  0  0  0  0
    0.0000    0.0000    0.0000 C   0  0  0  0  0  0  0  0  0  0  0  0
    0.0000    0.0000    0.0000 C   0  0  0  0  0  0  0  0  0  0  0  0
    0.0000    0.0000    0.0000 Br  0  0  0  0  0  0  0  0  0  0  0  0
    0.0000    0.0000    0.0000 C   0  0  0  0  0  0  0  0  0  0  0  0
    0.0000    0.0000    0.0000 C   0  0  0  0  0  0  0  0  0  0  0  0
    0.0000    0.0000    0.0000 C   0  0  0  0  0  0  0  0  0  0  0  0
    0.0000    0.0000    0.0000 O   0  0  0  0  0  0  0  0  0  0  0  0
  1  2  1  0
  2  3  2  0
  2  4  2  0
  2  5  1  0
  5  6  1  0
  6  7  1  0
  7  8  1  0
  8  9  1  0
  9 10  1  0
 10 11  2  0
 11 12  1  0
 12 13  1  0
 12 14  2  0
 14 15  1  0
 15 16  2  0
 16 17  1  0
 17  7  1  0
 16 10  1  0
M  END
>  <pIC50>  (530) 
4.44

>  <ChEMBL_ID>  (530) 
CHEMBL3093007

>  <document_journal>  (530) 
J. Med. Chem.

>  <bao_endpoint>  (530) 
BAO_0000190

>  <potential_duplicate>  (530) 
False

>  <uo_units>  (530) 
UO_0000065

>  <canonical_smiles>  (530) 
NS(=O)(=O)NC[C@H]1COc2cc(Br)ccc2O1

>  <parent_molecule_chembl_id>  (530) 
CHEMBL3093007

>  <assay_type>  (530) 
B

>  <src_id>  (530) 
1

>  <ligand_efficiency>  (530) 
{u'le': u'0.36', u'bei': u'13.75', u'sei': u'4.49', u'lle': u'3.88'}

>  <standard_flag>  (530) 
True

>  <molecule_chembl_id>  (530) 
CHEMBL3093007

>  <target_organism>  (530) 
Homo sapiens

>  <standard_units>  (530) 
nM

>  <record_id>  (530) 
1952933

>  <document_chembl_id>  (530) 
CHEMBL3091339

>  <bao_format>  (530) 
BAO_0000357

>  <data_validity_description>  (530) 
None

>  <activity_id>  (530) 
13859090

>  <standard_type>  (530) 
IC50

>  <target_chembl_id>  (530) 
CHEMBL205

>  <data_validity_comment>  (530) 
None

>  <published_value>  (530) 
36

>  <document_year>  (530) 
2013

>  <target_pref_name>  (530) 
Carbonic anhydrase II

>  <assay_chembl_id>  (530) 
CHEMBL3097934

>  <standard_relation>  (530) 
=

>  <assay_description>  (530) 
Inhibition of human carbonic anhydrase 2 by CO2 hydration assay

>  <published_relation>  (530) 
=

>  <standard_value>  (530) 
36000

>  <qudt_units>  (530) 
http://www.openphacts.org/units/Nanomolar

>  <target_tax_id>  (530) 
9606

>  <bao_label>  (530) 
single protein format

>  <published_units>  (530) 
uM

>  <pchembl_value>  (530) 
4.44

>  <published_type>  (530) 
IC50

>  <activity_comment>  (530) 
None

$$$$

     RDKit          

 17 18  0  0  0  0  0  0  0  0999 V2000
    0.0000    0.0000    0.0000 N   0  0  0  0  0  0  0  0  0  0  0  0
    0.0000    0.0000    0.0000 S   0  0  0  0  0  0  0  0  0  0  0  0
    0.0000    0.0000    0.0000 O   0  0  0  0  0  0  0  0  0  0  0  0
    0.0000    0.0000    0.0000 O   0  0  0  0  0  0  0  0  0  0  0  0
    0.0000    0.0000    0.0000 N   0  0  0  0  0  0  0  0  0  0  0  0
    0.0000    0.0000    0.0000 C   0  0  0  0  0  0  0  0  0  0  0  0
    0.0000    0.0000    0.0000 C   0  0  0  0  0  0  0  0  0  0  0  0
    0.0000    0.0000    0.0000 C   0  0  0  0  0  0  0  0  0  0  0  0
    0.0000    0.0000    0.0000 O   0  0  0  0  0  0  0  0  0  0  0  0
    0.0000    0.0000    0.0000 C   0  0  0  0  0  0  0  0  0  0  0  0
    0.0000    0.0000    0.0000 C   0  0  0  0  0  0  0  0  0  0  0  0
    0.0000    0.0000    0.0000 C   0  0  0  0  0  0  0  0  0  0  0  0
    0.0000    0.0000    0.0000 C   0  0  0  0  0  0  0  0  0  0  0  0
    0.0000    0.0000    0.0000 Cl  0  0  0  0  0  0  0  0  0  0  0  0
    0.0000    0.0000    0.0000 C   0  0  0  0  0  0  0  0  0  0  0  0
    0.0000    0.0000    0.0000 C   0  0  0  0  0  0  0  0  0  0  0  0
    0.0000    0.0000    0.0000 O   0  0  0  0  0  0  0  0  0  0  0  0
  1  2  1  0
  2  3  2  0
  2  4  2  0
  2  5  1  0
  5  6  1  0
  6  7  1  0
  7  8  1  0
  8  9  1  0
  9 10  1  0
 10 11  2  0
 11 12  1  0
 12 13  2  0
 13 14  1  0
 13 15  1  0
 15 16  2  0
 16 17  1  0
 17  7  1  0
 16 10  1  0
M  END
>  <pIC50>  (531) 
4.44

>  <ChEMBL_ID>  (531) 
CHEMBL3093003

>  <document_journal>  (531) 
J. Med. Chem.

>  <bao_endpoint>  (531) 
BAO_0000190

>  <potential_duplicate>  (531) 
False

>  <uo_units>  (531) 
UO_0000065

>  <canonical_smiles>  (531) 
NS(=O)(=O)NC[C@H]1COc2ccc(Cl)cc2O1

>  <parent_molecule_chembl_id>  (531) 
CHEMBL3093003

>  <assay_type>  (531) 
B

>  <src_id>  (531) 
1

>  <ligand_efficiency>  (531) 
{u'le': u'0.36', u'bei': u'15.94', u'sei': u'4.49', u'lle': u'3.97'}

>  <standard_flag>  (531) 
True

>  <molecule_chembl_id>  (531) 
CHEMBL3093003

>  <target_organism>  (531) 
Homo sapiens

>  <standard_units>  (531) 
nM

>  <record_id>  (531) 
1952929

>  <document_chembl_id>  (531) 
CHEMBL3091339

>  <bao_format>  (531) 
BAO_0000357

>  <data_validity_description>  (531) 
None

>  <activity_id>  (531) 
13859091

>  <standard_type>  (531) 
IC50

>  <target_chembl_id>  (531) 
CHEMBL205

>  <data_validity_comment>  (531) 
None

>  <published_value>  (531) 
36

>  <document_year>  (531) 
2013

>  <target_pref_name>  (531) 
Carbonic anhydrase II

>  <assay_chembl_id>  (531) 
CHEMBL3097934

>  <standard_relation>  (531) 
=

>  <assay_description>  (531) 
Inhibition of human carbonic anhydrase 2 by CO2 hydration assay

>  <published_relation>  (531) 
=

>  <standard_value>  (531) 
36000

>  <qudt_units>  (531) 
http://www.openphacts.org/units/Nanomolar

>  <target_tax_id>  (531) 
9606

>  <bao_label>  (531) 
single protein format

>  <published_units>  (531) 
uM

>  <pchembl_value>  (531) 
4.44

>  <published_type>  (531) 
IC50

>  <activity_comment>  (531) 
None

$$$$

     RDKit          

 17 18  0  0  0  0  0  0  0  0999 V2000
    0.0000    0.0000    0.0000 N   0  0  0  0  0  0  0  0  0  0  0  0
    0.0000    0.0000    0.0000 S   0  0  0  0  0  0  0  0  0  0  0  0
    0.0000    0.0000    0.0000 O   0  0  0  0  0  0  0  0  0  0  0  0
    0.0000    0.0000    0.0000 O   0  0  0  0  0  0  0  0  0  0  0  0
    0.0000    0.0000    0.0000 N   0  0  0  0  0  0  0  0  0  0  0  0
    0.0000    0.0000    0.0000 C   0  0  0  0  0  0  0  0  0  0  0  0
    0.0000    0.0000    0.0000 C   0  0  0  0  0  0  0  0  0  0  0  0
    0.0000    0.0000    0.0000 C   0  0  0  0  0  0  0  0  0  0  0  0
    0.0000    0.0000    0.0000 O   0  0  0  0  0  0  0  0  0  0  0  0
    0.0000    0.0000    0.0000 C   0  0  0  0  0  0  0  0  0  0  0  0
    0.0000    0.0000    0.0000 C   0  0  0  0  0  0  0  0  0  0  0  0
    0.0000    0.0000    0.0000 C   0  0  0  0  0  0  0  0  0  0  0  0
    0.0000    0.0000    0.0000 Cl  0  0  0  0  0  0  0  0  0  0  0  0
    0.0000    0.0000    0.0000 C   0  0  0  0  0  0  0  0  0  0  0  0
    0.0000    0.0000    0.0000 C   0  0  0  0  0  0  0  0  0  0  0  0
    0.0000    0.0000    0.0000 C   0  0  0  0  0  0  0  0  0  0  0  0
    0.0000    0.0000    0.0000 O   0  0  0  0  0  0  0  0  0  0  0  0
  1  2  1  0
  2  3  2  0
  2  4  2  0
  2  5  1  0
  5  6  1  0
  6  7  1  0
  7  8  1  0
  8  9  1  0
  9 10  1  0
 10 11  2  0
 11 12  1  0
 12 13  1  0
 12 14  2  0
 14 15  1  0
 15 16  2  0
 16 17  1  0
 17  7  1  0
 16 10  1  0
M  END
>  <pIC50>  (532) 
4.88

>  <ChEMBL_ID>  (532) 
CHEMBL3092995

>  <document_journal>  (532) 
J. Med. Chem.

>  <bao_endpoint>  (532) 
BAO_0000190

>  <potential_duplicate>  (532) 
False

>  <uo_units>  (532) 
UO_0000065

>  <canonical_smiles>  (532) 
NS(=O)(=O)NC[C@H]1COc2cc(Cl)ccc2O1

>  <parent_molecule_chembl_id>  (532) 
CHEMBL3092995

>  <assay_type>  (532) 
B

>  <src_id>  (532) 
1

>  <ligand_efficiency>  (532) 
{u'le': u'0.36', u'bei': u'15.99', u'sei': u'4.5', u'lle': u'3.99'}

>  <standard_flag>  (532) 
True

>  <molecule_chembl_id>  (532) 
CHEMBL3092995

>  <target_organism>  (532) 
Homo sapiens

>  <standard_units>  (532) 
nM

>  <record_id>  (532) 
1952920

>  <document_chembl_id>  (532) 
CHEMBL3091339

>  <bao_format>  (532) 
BAO_0000357

>  <data_validity_description>  (532) 
None

>  <activity_id>  (532) 
13859093

>  <standard_type>  (532) 
IC50

>  <target_chembl_id>  (532) 
CHEMBL205

>  <data_validity_comment>  (532) 
None

>  <published_value>  (532) 
35

>  <document_year>  (532) 
2013

>  <target_pref_name>  (532) 
Carbonic anhydrase II

>  <assay_chembl_id>  (532) 
CHEMBL3097934

>  <standard_relation>  (532) 
=

>  <assay_description>  (532) 
Inhibition of human carbonic anhydrase 2 by CO2 hydration assay

>  <published_relation>  (532) 
=

>  <standard_value>  (532) 
35000

>  <qudt_units>  (532) 
http://www.openphacts.org/units/Nanomolar

>  <target_tax_id>  (532) 
9606

>  <bao_label>  (532) 
single protein format

>  <published_units>  (532) 
uM

>  <pchembl_value>  (532) 
4.46

>  <published_type>  (532) 
IC50

>  <activity_comment>  (532) 
None

$$$$

     RDKit          

 18 19  0  0  0  0  0  0  0  0999 V2000
    0.0000    0.0000    0.0000 N   0  0  0  0  0  0  0  0  0  0  0  0
    0.0000    0.0000    0.0000 S   0  0  0  0  0  0  0  0  0  0  0  0
    0.0000    0.0000    0.0000 O   0  0  0  0  0  0  0  0  0  0  0  0
    0.0000    0.0000    0.0000 O   0  0  0  0  0  0  0  0  0  0  0  0
    0.0000    0.0000    0.0000 N   0  0  0  0  0  0  0  0  0  0  0  0
    0.0000    0.0000    0.0000 C   0  0  0  0  0  0  0  0  0  0  0  0
    0.0000    0.0000    0.0000 C   0  0  0  0  0  0  0  0  0  0  0  0
    0.0000    0.0000    0.0000 C   0  0  0  0  0  0  0  0  0  0  0  0
    0.0000    0.0000    0.0000 O   0  0  0  0  0  0  0  0  0  0  0  0
    0.0000    0.0000    0.0000 C   0  0  0  0  0  0  0  0  0  0  0  0
    0.0000    0.0000    0.0000 C   0  0  0  0  0  0  0  0  0  0  0  0
    0.0000    0.0000    0.0000 C   0  0  0  0  0  0  0  0  0  0  0  0
    0.0000    0.0000    0.0000 Cl  0  0  0  0  0  0  0  0  0  0  0  0
    0.0000    0.0000    0.0000 C   0  0  0  0  0  0  0  0  0  0  0  0
    0.0000    0.0000    0.0000 Cl  0  0  0  0  0  0  0  0  0  0  0  0
    0.0000    0.0000    0.0000 C   0  0  0  0  0  0  0  0  0  0  0  0
    0.0000    0.0000    0.0000 C   0  0  0  0  0  0  0  0  0  0  0  0
    0.0000    0.0000    0.0000 O   0  0  0  0  0  0  0  0  0  0  0  0
  1  2  1  0
  2  3  2  0
  2  4  2  0
  2  5  1  0
  5  6  1  0
  6  7  1  0
  7  8  1  0
  8  9  1  0
  9 10  1  0
 10 11  2  0
 11 12  1  0
 12 13  1  0
 12 14  2  0
 14 15  1  0
 14 16  1  0
 16 17  2  0
 17 18  1  0
 18  7  1  0
 17 10  1  0
M  END
>  <pIC50>  (533) 
4.52

>  <ChEMBL_ID>  (533) 
CHEMBL3093009

>  <document_journal>  (533) 
J. Med. Chem.

>  <bao_endpoint>  (533) 
BAO_0000190

>  <potential_duplicate>  (533) 
False

>  <uo_units>  (533) 
UO_0000065

>  <canonical_smiles>  (533) 
NS(=O)(=O)NC[C@H]1COc2cc(Cl)c(Cl)cc2O1

>  <parent_molecule_chembl_id>  (533) 
CHEMBL3093009

>  <assay_type>  (533) 
B

>  <src_id>  (533) 
1

>  <ligand_efficiency>  (533) 
{u'le': u'0.34', u'bei': u'14.44', u'sei': u'4.57', u'lle': u'3.38'}

>  <standard_flag>  (533) 
True

>  <molecule_chembl_id>  (533) 
CHEMBL3093009

>  <target_organism>  (533) 
Homo sapiens

>  <standard_units>  (533) 
nM

>  <record_id>  (533) 
1952935

>  <document_chembl_id>  (533) 
CHEMBL3091339

>  <bao_format>  (533) 
BAO_0000357

>  <data_validity_description>  (533) 
None

>  <activity_id>  (533) 
13859096

>  <standard_type>  (533) 
IC50

>  <target_chembl_id>  (533) 
CHEMBL205

>  <data_validity_comment>  (533) 
None

>  <published_value>  (533) 
30

>  <document_year>  (533) 
2013

>  <target_pref_name>  (533) 
Carbonic anhydrase II

>  <assay_chembl_id>  (533) 
CHEMBL3097934

>  <standard_relation>  (533) 
=

>  <assay_description>  (533) 
Inhibition of human carbonic anhydrase 2 by CO2 hydration assay

>  <published_relation>  (533) 
=

>  <standard_value>  (533) 
30000

>  <qudt_units>  (533) 
http://www.openphacts.org/units/Nanomolar

>  <target_tax_id>  (533) 
9606

>  <bao_label>  (533) 
single protein format

>  <published_units>  (533) 
uM

>  <pchembl_value>  (533) 
4.52

>  <published_type>  (533) 
IC50

>  <activity_comment>  (533) 
None

$$$$

     RDKit          

 17 18  0  0  0  0  0  0  0  0999 V2000
    0.0000    0.0000    0.0000 C   0  0  0  0  0  0  0  0  0  0  0  0
    0.0000    0.0000    0.0000 C   0  0  0  0  0  0  0  0  0  0  0  0
    0.0000    0.0000    0.0000 C   0  0  0  0  0  0  0  0  0  0  0  0
    0.0000    0.0000    0.0000 C   0  0  0  0  0  0  0  0  0  0  0  0
    0.0000    0.0000    0.0000 C   0  0  0  0  0  0  0  0  0  0  0  0
    0.0000    0.0000    0.0000 O   0  0  0  0  0  0  0  0  0  0  0  0
    0.0000    0.0000    0.0000 C   0  0  0  0  0  0  0  0  0  0  0  0
    0.0000    0.0000    0.0000 C   0  0  0  0  0  0  0  0  0  0  0  0
    0.0000    0.0000    0.0000 C   0  0  0  0  0  0  0  0  0  0  0  0
    0.0000    0.0000    0.0000 N   0  0  0  0  0  0  0  0  0  0  0  0
    0.0000    0.0000    0.0000 S   0  0  0  0  0  0  0  0  0  0  0  0
    0.0000    0.0000    0.0000 O   0  0  0  0  0  0  0  0  0  0  0  0
    0.0000    0.0000    0.0000 O   0  0  0  0  0  0  0  0  0  0  0  0
    0.0000    0.0000    0.0000 N   0  0  0  0  0  0  0  0  0  0  0  0
    0.0000    0.0000    0.0000 O   0  0  0  0  0  0  0  0  0  0  0  0
    0.0000    0.0000    0.0000 C   0  0  0  0  0  0  0  0  0  0  0  0
    0.0000    0.0000    0.0000 C   0  0  0  0  0  0  0  0  0  0  0  0
  1  2  1  0
  2  3  2  0
  3  4  1  0
  4  5  2  0
  5  6  1  0
  6  7  1  0
  7  8  1  0
  8  9  1  0
  9 10  1  0
 10 11  1  0
 11 12  2  0
 11 13  2  0
 11 14  1  0
  8 15  1  0
 15 16  1  0
 16 17  2  0
 17  2  1  0
 16  5  1  0
M  END
>  <pIC50>  (534) 
4.54

>  <ChEMBL_ID>  (534) 
CHEMBL3093010

>  <document_journal>  (534) 
J. Med. Chem.

>  <bao_endpoint>  (534) 
BAO_0000190

>  <potential_duplicate>  (534) 
False

>  <uo_units>  (534) 
UO_0000065

>  <canonical_smiles>  (534) 
Cc1ccc2OC[C@H](CNS(=O)(=O)N)Oc2c1

>  <parent_molecule_chembl_id>  (534) 
CHEMBL3093010

>  <assay_type>  (534) 
B

>  <src_id>  (534) 
1

>  <ligand_efficiency>  (534) 
{u'le': u'0.36', u'bei': u'17.57', u'sei': u'4.58', u'lle': u'4.25'}

>  <standard_flag>  (534) 
True

>  <molecule_chembl_id>  (534) 
CHEMBL3093010

>  <target_organism>  (534) 
Homo sapiens

>  <standard_units>  (534) 
nM

>  <record_id>  (534) 
1952936

>  <document_chembl_id>  (534) 
CHEMBL3091339

>  <bao_format>  (534) 
BAO_0000357

>  <data_validity_description>  (534) 
None

>  <activity_id>  (534) 
13859098

>  <standard_type>  (534) 
IC50

>  <target_chembl_id>  (534) 
CHEMBL205

>  <data_validity_comment>  (534) 
None

>  <published_value>  (534) 
29

>  <document_year>  (534) 
2013

>  <target_pref_name>  (534) 
Carbonic anhydrase II

>  <assay_chembl_id>  (534) 
CHEMBL3097934

>  <standard_relation>  (534) 
=

>  <assay_description>  (534) 
Inhibition of human carbonic anhydrase 2 by CO2 hydration assay

>  <published_relation>  (534) 
=

>  <standard_value>  (534) 
29000

>  <qudt_units>  (534) 
http://www.openphacts.org/units/Nanomolar

>  <target_tax_id>  (534) 
9606

>  <bao_label>  (534) 
single protein format

>  <published_units>  (534) 
uM

>  <pchembl_value>  (534) 
4.54

>  <published_type>  (534) 
IC50

>  <activity_comment>  (534) 
None

$$$$

     RDKit          

 17 18  0  0  0  0  0  0  0  0999 V2000
    0.0000    0.0000    0.0000 N   0  0  0  0  0  0  0  0  0  0  0  0
    0.0000    0.0000    0.0000 S   0  0  0  0  0  0  0  0  0  0  0  0
    0.0000    0.0000    0.0000 O   0  0  0  0  0  0  0  0  0  0  0  0
    0.0000    0.0000    0.0000 O   0  0  0  0  0  0  0  0  0  0  0  0
    0.0000    0.0000    0.0000 N   0  0  0  0  0  0  0  0  0  0  0  0
    0.0000    0.0000    0.0000 C   0  0  0  0  0  0  0  0  0  0  0  0
    0.0000    0.0000    0.0000 C   0  0  0  0  0  0  0  0  0  0  0  0
    0.0000    0.0000    0.0000 C   0  0  0  0  0  0  0  0  0  0  0  0
    0.0000    0.0000    0.0000 C   0  0  0  0  0  0  0  0  0  0  0  0
    0.0000    0.0000    0.0000 O   0  0  0  0  0  0  0  0  0  0  0  0
    0.0000    0.0000    0.0000 C   0  0  0  0  0  0  0  0  0  0  0  0
    0.0000    0.0000    0.0000 C   0  0  0  0  0  0  0  0  0  0  0  0
    0.0000    0.0000    0.0000 C   0  0  0  0  0  0  0  0  0  0  0  0
    0.0000    0.0000    0.0000 C   0  0  0  0  0  0  0  0  0  0  0  0
    0.0000    0.0000    0.0000 C   0  0  0  0  0  0  0  0  0  0  0  0
    0.0000    0.0000    0.0000 C   0  0  0  0  0  0  0  0  0  0  0  0
    0.0000    0.0000    0.0000 O   0  0  0  0  0  0  0  0  0  0  0  0
  1  2  1  0
  2  3  2  0
  2  4  2  0
  2  5  1  0
  5  6  1  0
  6  7  1  0
  7  8  1  0
  8  9  1  0
  9 10  1  0
 10 11  1  0
 11 12  2  0
 12 13  1  0
 13 14  2  0
 14 15  1  0
 15 16  2  0
 16 17  1  0
 17  8  1  0
 16 11  1  0
M  END
>  <pIC50>  (535) 
4.6

>  <ChEMBL_ID>  (535) 
CHEMBL3093001

>  <document_journal>  (535) 
J. Med. Chem.

>  <bao_endpoint>  (535) 
BAO_0000190

>  <potential_duplicate>  (535) 
False

>  <uo_units>  (535) 
UO_0000065

>  <canonical_smiles>  (535) 
NS(=O)(=O)NCCC1COc2ccccc2O1

>  <parent_molecule_chembl_id>  (535) 
CHEMBL3093001

>  <assay_type>  (535) 
B

>  <src_id>  (535) 
1

>  <ligand_efficiency>  (535) 
{u'le': u'0.37', u'bei': u'17.82', u'sei': u'4.65', u'lle': u'4.73'}

>  <standard_flag>  (535) 
True

>  <molecule_chembl_id>  (535) 
CHEMBL3093001

>  <target_organism>  (535) 
Homo sapiens

>  <standard_units>  (535) 
nM

>  <record_id>  (535) 
1952927

>  <document_chembl_id>  (535) 
CHEMBL3091339

>  <bao_format>  (535) 
BAO_0000357

>  <data_validity_description>  (535) 
None

>  <activity_id>  (535) 
13859100

>  <standard_type>  (535) 
IC50

>  <target_chembl_id>  (535) 
CHEMBL205

>  <data_validity_comment>  (535) 
None

>  <published_value>  (535) 
25

>  <document_year>  (535) 
2013

>  <target_pref_name>  (535) 
Carbonic anhydrase II

>  <assay_chembl_id>  (535) 
CHEMBL3097934

>  <standard_relation>  (535) 
=

>  <assay_description>  (535) 
Inhibition of human carbonic anhydrase 2 by CO2 hydration assay

>  <published_relation>  (535) 
=

>  <standard_value>  (535) 
25000

>  <qudt_units>  (535) 
http://www.openphacts.org/units/Nanomolar

>  <target_tax_id>  (535) 
9606

>  <bao_label>  (535) 
single protein format

>  <published_units>  (535) 
uM

>  <pchembl_value>  (535) 
4.6

>  <published_type>  (535) 
IC50

>  <activity_comment>  (535) 
None

$$$$

     RDKit          

 17 18  0  0  0  0  0  0  0  0999 V2000
    0.0000    0.0000    0.0000 N   0  0  0  0  0  0  0  0  0  0  0  0
    0.0000    0.0000    0.0000 S   0  0  0  0  0  0  0  0  0  0  0  0
    0.0000    0.0000    0.0000 O   0  0  0  0  0  0  0  0  0  0  0  0
    0.0000    0.0000    0.0000 O   0  0  0  0  0  0  0  0  0  0  0  0
    0.0000    0.0000    0.0000 N   0  0  0  0  0  0  0  0  0  0  0  0
    0.0000    0.0000    0.0000 C   0  0  0  0  0  0  0  0  0  0  0  0
    0.0000    0.0000    0.0000 C   0  0  0  0  0  0  0  0  0  0  0  0
    0.0000    0.0000    0.0000 C   0  0  0  0  0  0  0  0  0  0  0  0
    0.0000    0.0000    0.0000 O   0  0  0  0  0  0  0  0  0  0  0  0
    0.0000    0.0000    0.0000 C   0  0  0  0  0  0  0  0  0  0  0  0
    0.0000    0.0000    0.0000 C   0  0  0  0  0  0  0  0  0  0  0  0
    0.0000    0.0000    0.0000 C   0  0  0  0  0  0  0  0  0  0  0  0
    0.0000    0.0000    0.0000 C   0  0  0  0  0  0  0  0  0  0  0  0
    0.0000    0.0000    0.0000 C   0  0  0  0  0  0  0  0  0  0  0  0
    0.0000    0.0000    0.0000 C   0  0  0  0  0  0  0  0  0  0  0  0
    0.0000    0.0000    0.0000 O   0  0  0  0  0  0  0  0  0  0  0  0
    0.0000    0.0000    0.0000 C   0  0  0  0  0  0  0  0  0  0  0  0
  1  2  1  0
  2  3  2  0
  2  4  2  0
  2  5  1  0
  5  6  1  0
  6  7  1  0
  7  8  1  0
  8  9  1  0
  9 10  1  0
 10 11  2  0
 11 12  1  0
 12 13  2  0
 13 14  1  0
 14 15  2  0
 15 16  1  0
 16 17  1  0
 17  7  1  0
 15 10  1  0
M  END
>  <pIC50>  (536) 
4.77

>  <ChEMBL_ID>  (536) 
CHEMBL3093012

>  <document_journal>  (536) 
J. Med. Chem.

>  <bao_endpoint>  (536) 
BAO_0000190

>  <potential_duplicate>  (536) 
False

>  <uo_units>  (536) 
UO_0000065

>  <canonical_smiles>  (536) 
NS(=O)(=O)NCC1COc2ccccc2OC1

>  <parent_molecule_chembl_id>  (536) 
CHEMBL3093012

>  <assay_type>  (536) 
B

>  <src_id>  (536) 
1

>  <ligand_efficiency>  (536) 
{u'le': u'0.38', u'bei': u'18.47', u'sei': u'4.82', u'lle': u'4.94'}

>  <standard_flag>  (536) 
True

>  <molecule_chembl_id>  (536) 
CHEMBL3093012

>  <target_organism>  (536) 
Homo sapiens

>  <standard_units>  (536) 
nM

>  <record_id>  (536) 
1952939

>  <document_chembl_id>  (536) 
CHEMBL3091339

>  <bao_format>  (536) 
BAO_0000357

>  <data_validity_description>  (536) 
None

>  <activity_id>  (536) 
13859110

>  <standard_type>  (536) 
IC50

>  <target_chembl_id>  (536) 
CHEMBL205

>  <data_validity_comment>  (536) 
None

>  <published_value>  (536) 
17

>  <document_year>  (536) 
2013

>  <target_pref_name>  (536) 
Carbonic anhydrase II

>  <assay_chembl_id>  (536) 
CHEMBL3097934

>  <standard_relation>  (536) 
=

>  <assay_description>  (536) 
Inhibition of human carbonic anhydrase 2 by CO2 hydration assay

>  <published_relation>  (536) 
=

>  <standard_value>  (536) 
17000

>  <qudt_units>  (536) 
http://www.openphacts.org/units/Nanomolar

>  <target_tax_id>  (536) 
9606

>  <bao_label>  (536) 
single protein format

>  <published_units>  (536) 
uM

>  <pchembl_value>  (536) 
4.77

>  <published_type>  (536) 
IC50

>  <activity_comment>  (536) 
None

$$$$

     RDKit          

 16 16  0  0  0  0  0  0  0  0999 V2000
    0.0000    0.0000    0.0000 O   0  0  0  0  0  0  0  0  0  0  0  0
    0.0000    0.0000    0.0000 C   0  0  0  0  0  0  0  0  0  0  0  0
    0.0000    0.0000    0.0000 C   0  0  0  0  0  0  0  0  0  0  0  0
    0.0000    0.0000    0.0000 N   0  0  0  0  0  0  0  0  0  0  0  0
    0.0000    0.0000    0.0000 C   0  0  0  0  0  0  0  0  0  0  0  0
    0.0000    0.0000    0.0000 C   0  0  0  0  0  0  0  0  0  0  0  0
    0.0000    0.0000    0.0000 N   0  0  0  0  0  0  0  0  0  0  0  0
    0.0000    0.0000    0.0000 C   0  0  0  0  0  0  0  0  0  0  0  0
    0.0000    0.0000    0.0000 P   0  0  0  0  0  0  0  0  0  0  0  0
    0.0000    0.0000    0.0000 O   0  0  0  0  0  0  0  0  0  0  0  0
    0.0000    0.0000    0.0000 O   0  0  0  0  0  0  0  0  0  0  0  0
    0.0000    0.0000    0.0000 O   0  0  0  0  0  0  0  0  0  0  0  0
    0.0000    0.0000    0.0000 P   0  0  0  0  0  0  0  0  0  0  0  0
    0.0000    0.0000    0.0000 O   0  0  0  0  0  0  0  0  0  0  0  0
    0.0000    0.0000    0.0000 O   0  0  0  0  0  0  0  0  0  0  0  0
    0.0000    0.0000    0.0000 O   0  0  0  0  0  0  0  0  0  0  0  0
  1  2  1  0
  2  3  1  0
  3  4  1  0
  4  5  1  0
  5  6  2  0
  6  7  1  0
  7  8  2  0
  2  9  1  0
  9 10  2  0
  9 11  1  0
  9 12  1  0
  2 13  1  0
 13 14  2  0
 13 15  1  0
 13 16  1  0
  8  4  1  0
M  END
>  <pIC50>  (537) 
7.21

>  <ChEMBL_ID>  (537) 
CHEMBL924

>  <document_journal>  (537) 
Bioorg. Med. Chem. Lett.

>  <bao_endpoint>  (537) 
BAO_0000190

>  <potential_duplicate>  (537) 
True

>  <uo_units>  (537) 
UO_0000065

>  <canonical_smiles>  (537) 
OC(Cn1ccnc1)(P(=O)(O)O)P(=O)(O)O

>  <parent_molecule_chembl_id>  (537) 
CHEMBL924

>  <assay_type>  (537) 
B

>  <src_id>  (537) 
1

>  <ligand_efficiency>  (537) 
{u'le': u'0.62', u'bei': u'26.49', u'sei': u'4.17', u'lle': u'8.42'}

>  <standard_flag>  (537) 
True

>  <molecule_chembl_id>  (537) 
CHEMBL924

>  <target_organism>  (537) 
Homo sapiens

>  <standard_units>  (537) 
nM

>  <record_id>  (537) 
2087600

>  <document_chembl_id>  (537) 
CHEMBL3232909

>  <bao_format>  (537) 
BAO_0000357

>  <data_validity_description>  (537) 
None

>  <activity_id>  (537) 
14596543

>  <standard_type>  (537) 
IC50

>  <target_chembl_id>  (537) 
CHEMBL205

>  <data_validity_comment>  (537) 
None

>  <published_value>  (537) 
0.062

>  <document_year>  (537) 
2014

>  <target_pref_name>  (537) 
Carbonic anhydrase II

>  <assay_chembl_id>  (537) 
CHEMBL3240045

>  <standard_relation>  (537) 
=

>  <assay_description>  (537) 
Inhibition of human recombinant carbonic anhydrase 2 preincubated for 15 mins by stopped flow CO2 hydration method

>  <published_relation>  (537) 
=

>  <standard_value>  (537) 
62

>  <qudt_units>  (537) 
http://www.openphacts.org/units/Nanomolar

>  <target_tax_id>  (537) 
9606

>  <bao_label>  (537) 
single protein format

>  <published_units>  (537) 
uM

>  <pchembl_value>  (537) 
7.21

>  <published_type>  (537) 
IC50

>  <activity_comment>  (537) 
None

$$$$

     RDKit          

 17 17  0  0  0  0  0  0  0  0999 V2000
    0.0000    0.0000    0.0000 O   0  0  0  0  0  0  0  0  0  0  0  0
    0.0000    0.0000    0.0000 C   0  0  0  0  0  0  0  0  0  0  0  0
    0.0000    0.0000    0.0000 C   0  0  0  0  0  0  0  0  0  0  0  0
    0.0000    0.0000    0.0000 C   0  0  0  0  0  0  0  0  0  0  0  0
    0.0000    0.0000    0.0000 C   0  0  0  0  0  0  0  0  0  0  0  0
    0.0000    0.0000    0.0000 N   0  0  0  0  0  0  0  0  0  0  0  0
    0.0000    0.0000    0.0000 C   0  0  0  0  0  0  0  0  0  0  0  0
    0.0000    0.0000    0.0000 P   0  0  0  0  0  0  0  0  0  0  0  0
    0.0000    0.0000    0.0000 O   0  0  0  0  0  0  0  0  0  0  0  0
    0.0000    0.0000    0.0000 O   0  0  0  0  0  0  0  0  0  0  0  0
    0.0000    0.0000    0.0000 O   0  0  0  0  0  0  0  0  0  0  0  0
    0.0000    0.0000    0.0000 P   0  0  0  0  0  0  0  0  0  0  0  0
    0.0000    0.0000    0.0000 O   0  0  0  0  0  0  0  0  0  0  0  0
    0.0000    0.0000    0.0000 O   0  0  0  0  0  0  0  0  0  0  0  0
    0.0000    0.0000    0.0000 O   0  0  0  0  0  0  0  0  0  0  0  0
    0.0000    0.0000    0.0000 C   0  0  0  0  0  0  0  0  0  0  0  0
    0.0000    0.0000    0.0000 C   0  0  0  0  0  0  0  0  0  0  0  0
  1  2  1  0
  2  3  2  0
  3  4  1  0
  4  5  2  0
  5  6  1  0
  6  7  1  0
  7  8  1  0
  8  9  2  0
  8 10  1  0
  8 11  1  0
  7 12  1  0
 12 13  2  0
 12 14  1  0
 12 15  1  0
  5 16  1  0
 16 17  2  0
 17  2  1  0
M  END
>  <pIC50>  (538) 
5.09

>  <ChEMBL_ID>  (538) 
CHEMBL2440438

>  <document_journal>  (538) 
Bioorg. Med. Chem. Lett.

>  <bao_endpoint>  (538) 
BAO_0000190

>  <potential_duplicate>  (538) 
False

>  <uo_units>  (538) 
UO_0000065

>  <canonical_smiles>  (538) 
Oc1ccc(NC(P(=O)(O)O)P(=O)(O)O)cc1

>  <parent_molecule_chembl_id>  (538) 
CHEMBL2440438

>  <assay_type>  (538) 
B

>  <src_id>  (538) 
1

>  <ligand_efficiency>  (538) 
{u'le': u'0.41', u'bei': u'17.97', u'sei': u'3.05', u'lle': u'4.45'}

>  <standard_flag>  (538) 
True

>  <molecule_chembl_id>  (538) 
CHEMBL2440438

>  <target_organism>  (538) 
Homo sapiens

>  <standard_units>  (538) 
nM

>  <record_id>  (538) 
2087611

>  <document_chembl_id>  (538) 
CHEMBL3232909

>  <bao_format>  (538) 
BAO_0000357

>  <data_validity_description>  (538) 
None

>  <activity_id>  (538) 
14596554

>  <standard_type>  (538) 
IC50

>  <target_chembl_id>  (538) 
CHEMBL205

>  <data_validity_comment>  (538) 
None

>  <published_value>  (538) 
8.199

>  <document_year>  (538) 
2014

>  <target_pref_name>  (538) 
Carbonic anhydrase II

>  <assay_chembl_id>  (538) 
CHEMBL3240045

>  <standard_relation>  (538) 
=

>  <assay_description>  (538) 
Inhibition of human recombinant carbonic anhydrase 2 preincubated for 15 mins by stopped flow CO2 hydration method

>  <published_relation>  (538) 
=

>  <standard_value>  (538) 
8199

>  <qudt_units>  (538) 
http://www.openphacts.org/units/Nanomolar

>  <target_tax_id>  (538) 
9606

>  <bao_label>  (538) 
single protein format

>  <published_units>  (538) 
uM

>  <pchembl_value>  (538) 
5.09

>  <published_type>  (538) 
IC50

>  <activity_comment>  (538) 
None

$$$$

     RDKit          

 22 23  0  0  0  0  0  0  0  0999 V2000
    0.0000    0.0000    0.0000 O   0  0  0  0  0  0  0  0  0  0  0  0
    0.0000    0.0000    0.0000 P   0  0  0  0  0  0  0  0  0  0  0  0
    0.0000    0.0000    0.0000 O   0  0  0  0  0  0  0  0  0  0  0  0
    0.0000    0.0000    0.0000 O   0  0  0  0  0  0  0  0  0  0  0  0
    0.0000    0.0000    0.0000 C   0  0  0  0  0  0  0  0  0  0  0  0
    0.0000    0.0000    0.0000 N   0  0  0  0  0  0  0  0  0  0  0  0
    0.0000    0.0000    0.0000 C   0  0  0  0  0  0  0  0  0  0  0  0
    0.0000    0.0000    0.0000 C   0  0  0  0  0  0  0  0  0  0  0  0
    0.0000    0.0000    0.0000 C   0  0  0  0  0  0  0  0  0  0  0  0
    0.0000    0.0000    0.0000 C   0  0  0  0  0  0  0  0  0  0  0  0
    0.0000    0.0000    0.0000 C   0  0  0  0  0  0  0  0  0  0  0  0
    0.0000    0.0000    0.0000 C   0  0  0  0  0  0  0  0  0  0  0  0
    0.0000    0.0000    0.0000 C   0  0  0  0  0  0  0  0  0  0  0  0
    0.0000    0.0000    0.0000 C   0  0  0  0  0  0  0  0  0  0  0  0
    0.0000    0.0000    0.0000 C   0  0  0  0  0  0  0  0  0  0  0  0
    0.0000    0.0000    0.0000 C   0  0  0  0  0  0  0  0  0  0  0  0
    0.0000    0.0000    0.0000 C   0  0  0  0  0  0  0  0  0  0  0  0
    0.0000    0.0000    0.0000 C   0  0  0  0  0  0  0  0  0  0  0  0
    0.0000    0.0000    0.0000 P   0  0  0  0  0  0  0  0  0  0  0  0
    0.0000    0.0000    0.0000 O   0  0  0  0  0  0  0  0  0  0  0  0
    0.0000    0.0000    0.0000 O   0  0  0  0  0  0  0  0  0  0  0  0
    0.0000    0.0000    0.0000 O   0  0  0  0  0  0  0  0  0  0  0  0
  1  2  1  0
  2  3  2  0
  2  4  1  0
  2  5  1  0
  5  6  1  0
  6  7  1  0
  7  8  2  0
  8  9  1  0
  9 10  2  0
 10 11  1  0
 11 12  2  0
 11 13  1  0
 13 14  2  0
 14 15  1  0
 15 16  2  0
 16 17  1  0
 17 18  2  0
  5 19  1  0
 19 20  2  0
 19 21  1  0
 19 22  1  0
 12  7  1  0
 18 13  1  0
M  END
>  <pIC50>  (539) 
5.03

>  <ChEMBL_ID>  (539) 
CHEMBL55371

>  <document_journal>  (539) 
Bioorg. Med. Chem. Lett.

>  <bao_endpoint>  (539) 
BAO_0000190

>  <potential_duplicate>  (539) 
False

>  <uo_units>  (539) 
UO_0000065

>  <canonical_smiles>  (539) 
OP(=O)(O)C(Nc1cccc(c1)c2ccccc2)P(=O)(O)O

>  <parent_molecule_chembl_id>  (539) 
CHEMBL55371

>  <assay_type>  (539) 
B

>  <src_id>  (539) 
1

>  <ligand_efficiency>  (539) 
{u'le': u'0.31', u'bei': u'14.65', u'sei': u'3.43', u'lle': u'2.63'}

>  <standard_flag>  (539) 
True

>  <molecule_chembl_id>  (539) 
CHEMBL55371

>  <target_organism>  (539) 
Homo sapiens

>  <standard_units>  (539) 
nM

>  <record_id>  (539) 
2087616

>  <document_chembl_id>  (539) 
CHEMBL3232909

>  <bao_format>  (539) 
BAO_0000357

>  <data_validity_description>  (539) 
None

>  <activity_id>  (539) 
14596559

>  <standard_type>  (539) 
IC50

>  <target_chembl_id>  (539) 
CHEMBL205

>  <data_validity_comment>  (539) 
None

>  <published_value>  (539) 
9.371

>  <document_year>  (539) 
2014

>  <target_pref_name>  (539) 
Carbonic anhydrase II

>  <assay_chembl_id>  (539) 
CHEMBL3240045

>  <standard_relation>  (539) 
=

>  <assay_description>  (539) 
Inhibition of human recombinant carbonic anhydrase 2 preincubated for 15 mins by stopped flow CO2 hydration method

>  <published_relation>  (539) 
=

>  <standard_value>  (539) 
9371

>  <qudt_units>  (539) 
http://www.openphacts.org/units/Nanomolar

>  <target_tax_id>  (539) 
9606

>  <bao_label>  (539) 
single protein format

>  <published_units>  (539) 
uM

>  <pchembl_value>  (539) 
5.03

>  <published_type>  (539) 
IC50

>  <activity_comment>  (539) 
None

$$$$

     RDKit          

 24 25  0  0  0  0  0  0  0  0999 V2000
    0.0000    0.0000    0.0000 O   0  0  0  0  0  0  0  0  0  0  0  0
    0.0000    0.0000    0.0000 P   0  0  0  0  0  0  0  0  0  0  0  0
    0.0000    0.0000    0.0000 O   0  0  0  0  0  0  0  0  0  0  0  0
    0.0000    0.0000    0.0000 O   0  0  0  0  0  0  0  0  0  0  0  0
    0.0000    0.0000    0.0000 C   0  0  0  0  0  0  0  0  0  0  0  0
    0.0000    0.0000    0.0000 N   0  0  0  0  0  0  0  0  0  0  0  0
    0.0000    0.0000    0.0000 C   0  0  0  0  0  0  0  0  0  0  0  0
    0.0000    0.0000    0.0000 C   0  0  0  0  0  0  0  0  0  0  0  0
    0.0000    0.0000    0.0000 C   0  0  0  0  0  0  0  0  0  0  0  0
    0.0000    0.0000    0.0000 C   0  0  0  0  0  0  0  0  0  0  0  0
    0.0000    0.0000    0.0000 O   0  0  0  0  0  0  0  0  0  0  0  0
    0.0000    0.0000    0.0000 C   0  0  0  0  0  0  0  0  0  0  0  0
    0.0000    0.0000    0.0000 C   0  0  0  0  0  0  0  0  0  0  0  0
    0.0000    0.0000    0.0000 C   0  0  0  0  0  0  0  0  0  0  0  0
    0.0000    0.0000    0.0000 C   0  0  0  0  0  0  0  0  0  0  0  0
    0.0000    0.0000    0.0000 Cl  0  0  0  0  0  0  0  0  0  0  0  0
    0.0000    0.0000    0.0000 C   0  0  0  0  0  0  0  0  0  0  0  0
    0.0000    0.0000    0.0000 C   0  0  0  0  0  0  0  0  0  0  0  0
    0.0000    0.0000    0.0000 C   0  0  0  0  0  0  0  0  0  0  0  0
    0.0000    0.0000    0.0000 C   0  0  0  0  0  0  0  0  0  0  0  0
    0.0000    0.0000    0.0000 P   0  0  0  0  0  0  0  0  0  0  0  0
    0.0000    0.0000    0.0000 O   0  0  0  0  0  0  0  0  0  0  0  0
    0.0000    0.0000    0.0000 O   0  0  0  0  0  0  0  0  0  0  0  0
    0.0000    0.0000    0.0000 O   0  0  0  0  0  0  0  0  0  0  0  0
  1  2  1  0
  2  3  2  0
  2  4  1  0
  2  5  1  0
  5  6  1  0
  6  7  1  0
  7  8  2  0
  8  9  1  0
  9 10  2  0
 10 11  1  0
 11 12  1  0
 12 13  2  0
 13 14  1  0
 14 15  2  0
 15 16  1  0
 15 17  1  0
 17 18  2  0
 10 19  1  0
 19 20  2  0
  5 21  1  0
 21 22  2  0
 21 23  1  0
 21 24  1  0
 20  7  1  0
 18 12  1  0
M  END
>  <pIC50>  (540) 
5.03

>  <ChEMBL_ID>  (540) 
CHEMBL2440431

>  <document_journal>  (540) 
Bioorg. Med. Chem. Lett.

>  <bao_endpoint>  (540) 
BAO_0000190

>  <potential_duplicate>  (540) 
False

>  <uo_units>  (540) 
UO_0000065

>  <canonical_smiles>  (540) 
OP(=O)(O)C(Nc1ccc(Oc2ccc(Cl)cc2)cc1)P(=O)(O)O

>  <parent_molecule_chembl_id>  (540) 
CHEMBL2440431

>  <assay_type>  (540) 
B

>  <src_id>  (540) 
1

>  <ligand_efficiency>  (540) 
{u'le': u'0.29', u'bei': u'12.77', u'sei': u'3.22', u'lle': u'1.92'}

>  <standard_flag>  (540) 
True

>  <molecule_chembl_id>  (540) 
CHEMBL2440431

>  <target_organism>  (540) 
Homo sapiens

>  <standard_units>  (540) 
nM

>  <record_id>  (540) 
2087618

>  <document_chembl_id>  (540) 
CHEMBL3232909

>  <bao_format>  (540) 
BAO_0000357

>  <data_validity_description>  (540) 
None

>  <activity_id>  (540) 
14596561

>  <standard_type>  (540) 
IC50

>  <target_chembl_id>  (540) 
CHEMBL205

>  <data_validity_comment>  (540) 
None

>  <published_value>  (540) 
9.371

>  <document_year>  (540) 
2014

>  <target_pref_name>  (540) 
Carbonic anhydrase II

>  <assay_chembl_id>  (540) 
CHEMBL3240045

>  <standard_relation>  (540) 
=

>  <assay_description>  (540) 
Inhibition of human recombinant carbonic anhydrase 2 preincubated for 15 mins by stopped flow CO2 hydration method

>  <published_relation>  (540) 
=

>  <standard_value>  (540) 
9371

>  <qudt_units>  (540) 
http://www.openphacts.org/units/Nanomolar

>  <target_tax_id>  (540) 
9606

>  <bao_label>  (540) 
single protein format

>  <published_units>  (540) 
uM

>  <pchembl_value>  (540) 
5.03

>  <published_type>  (540) 
IC50

>  <activity_comment>  (540) 
None

$$$$

     RDKit          

 24 25  0  0  0  0  0  0  0  0999 V2000
    0.0000    0.0000    0.0000 O   0  0  0  0  0  0  0  0  0  0  0  0
    0.0000    0.0000    0.0000 P   0  0  0  0  0  0  0  0  0  0  0  0
    0.0000    0.0000    0.0000 O   0  0  0  0  0  0  0  0  0  0  0  0
    0.0000    0.0000    0.0000 O   0  0  0  0  0  0  0  0  0  0  0  0
    0.0000    0.0000    0.0000 C   0  0  0  0  0  0  0  0  0  0  0  0
    0.0000    0.0000    0.0000 N   0  0  0  0  0  0  0  0  0  0  0  0
    0.0000    0.0000    0.0000 C   0  0  0  0  0  0  0  0  0  0  0  0
    0.0000    0.0000    0.0000 C   0  0  0  0  0  0  0  0  0  0  0  0
    0.0000    0.0000    0.0000 C   0  0  0  0  0  0  0  0  0  0  0  0
    0.0000    0.0000    0.0000 C   0  0  0  0  0  0  0  0  0  0  0  0
    0.0000    0.0000    0.0000 O   0  0  0  0  0  0  0  0  0  0  0  0
    0.0000    0.0000    0.0000 C   0  0  0  0  0  0  0  0  0  0  0  0
    0.0000    0.0000    0.0000 C   0  0  0  0  0  0  0  0  0  0  0  0
    0.0000    0.0000    0.0000 C   0  0  0  0  0  0  0  0  0  0  0  0
    0.0000    0.0000    0.0000 C   0  0  0  0  0  0  0  0  0  0  0  0
    0.0000    0.0000    0.0000 Br  0  0  0  0  0  0  0  0  0  0  0  0
    0.0000    0.0000    0.0000 C   0  0  0  0  0  0  0  0  0  0  0  0
    0.0000    0.0000    0.0000 C   0  0  0  0  0  0  0  0  0  0  0  0
    0.0000    0.0000    0.0000 C   0  0  0  0  0  0  0  0  0  0  0  0
    0.0000    0.0000    0.0000 C   0  0  0  0  0  0  0  0  0  0  0  0
    0.0000    0.0000    0.0000 P   0  0  0  0  0  0  0  0  0  0  0  0
    0.0000    0.0000    0.0000 O   0  0  0  0  0  0  0  0  0  0  0  0
    0.0000    0.0000    0.0000 O   0  0  0  0  0  0  0  0  0  0  0  0
    0.0000    0.0000    0.0000 O   0  0  0  0  0  0  0  0  0  0  0  0
  1  2  1  0
  2  3  2  0
  2  4  1  0
  2  5  1  0
  5  6  1  0
  6  7  1  0
  7  8  2  0
  8  9  1  0
  9 10  2  0
 10 11  1  0
 11 12  1  0
 12 13  2  0
 13 14  1  0
 14 15  2  0
 15 16  1  0
 15 17  1  0
 17 18  2  0
 10 19  1  0
 19 20  2  0
  5 21  1  0
 21 22  2  0
 21 23  1  0
 21 24  1  0
 20  7  1  0
 18 12  1  0
M  END
>  <pIC50>  (541) 
5.13

>  <ChEMBL_ID>  (541) 
CHEMBL2440432

>  <document_journal>  (541) 
Bioorg. Med. Chem. Lett.

>  <bao_endpoint>  (541) 
BAO_0000190

>  <potential_duplicate>  (541) 
False

>  <uo_units>  (541) 
UO_0000065

>  <canonical_smiles>  (541) 
OP(=O)(O)C(Nc1ccc(Oc2ccc(Br)cc2)cc1)P(=O)(O)O

>  <parent_molecule_chembl_id>  (541) 
CHEMBL2440432

>  <assay_type>  (541) 
B

>  <src_id>  (541) 
1

>  <ligand_efficiency>  (541) 
{u'le': u'0.29', u'bei': u'11.7', u'sei': u'3.29', u'lle': u'1.94'}

>  <standard_flag>  (541) 
True

>  <molecule_chembl_id>  (541) 
CHEMBL2440432

>  <target_organism>  (541) 
Homo sapiens

>  <standard_units>  (541) 
nM

>  <record_id>  (541) 
2087619

>  <document_chembl_id>  (541) 
CHEMBL3232909

>  <bao_format>  (541) 
BAO_0000357

>  <data_validity_description>  (541) 
None

>  <activity_id>  (541) 
14596562

>  <standard_type>  (541) 
IC50

>  <target_chembl_id>  (541) 
CHEMBL205

>  <data_validity_comment>  (541) 
None

>  <published_value>  (541) 
7.469

>  <document_year>  (541) 
2014

>  <target_pref_name>  (541) 
Carbonic anhydrase II

>  <assay_chembl_id>  (541) 
CHEMBL3240045

>  <standard_relation>  (541) 
=

>  <assay_description>  (541) 
Inhibition of human recombinant carbonic anhydrase 2 preincubated for 15 mins by stopped flow CO2 hydration method

>  <published_relation>  (541) 
=

>  <standard_value>  (541) 
7469

>  <qudt_units>  (541) 
http://www.openphacts.org/units/Nanomolar

>  <target_tax_id>  (541) 
9606

>  <bao_label>  (541) 
single protein format

>  <published_units>  (541) 
uM

>  <pchembl_value>  (541) 
5.13

>  <published_type>  (541) 
IC50

>  <activity_comment>  (541) 
None

$$$$

     RDKit          

 20 21  0  0  0  0  0  0  0  0999 V2000
    0.0000    0.0000    0.0000 O   0  0  0  0  0  0  0  0  0  0  0  0
    0.0000    0.0000    0.0000 P   0  0  0  0  0  0  0  0  0  0  0  0
    0.0000    0.0000    0.0000 O   0  0  0  0  0  0  0  0  0  0  0  0
    0.0000    0.0000    0.0000 O   0  0  0  0  0  0  0  0  0  0  0  0
    0.0000    0.0000    0.0000 C   0  0  0  0  0  0  0  0  0  0  0  0
    0.0000    0.0000    0.0000 N   0  0  0  0  0  0  0  0  0  0  0  0
    0.0000    0.0000    0.0000 C   0  0  0  0  0  0  0  0  0  0  0  0
    0.0000    0.0000    0.0000 C   0  0  0  0  0  0  0  0  0  0  0  0
    0.0000    0.0000    0.0000 C   0  0  0  0  0  0  0  0  0  0  0  0
    0.0000    0.0000    0.0000 C   0  0  0  0  0  0  0  0  0  0  0  0
    0.0000    0.0000    0.0000 C   0  0  0  0  0  0  0  0  0  0  0  0
    0.0000    0.0000    0.0000 C   0  0  0  0  0  0  0  0  0  0  0  0
    0.0000    0.0000    0.0000 C   0  0  0  0  0  0  0  0  0  0  0  0
    0.0000    0.0000    0.0000 C   0  0  0  0  0  0  0  0  0  0  0  0
    0.0000    0.0000    0.0000 C   0  0  0  0  0  0  0  0  0  0  0  0
    0.0000    0.0000    0.0000 C   0  0  0  0  0  0  0  0  0  0  0  0
    0.0000    0.0000    0.0000 P   0  0  0  0  0  0  0  0  0  0  0  0
    0.0000    0.0000    0.0000 O   0  0  0  0  0  0  0  0  0  0  0  0
    0.0000    0.0000    0.0000 O   0  0  0  0  0  0  0  0  0  0  0  0
    0.0000    0.0000    0.0000 O   0  0  0  0  0  0  0  0  0  0  0  0
  1  2  1  0
  2  3  2  0
  2  4  1  0
  2  5  1  0
  5  6  1  0
  6  7  1  0
  7  8  2  0
  8  9  1  0
  9 10  2  0
 10 11  1  0
 11 12  2  0
 12 13  1  0
 13 14  2  0
 14 15  1  0
 15 16  2  0
  5 17  1  0
 17 18  2  0
 17 19  1  0
 17 20  1  0
 16  7  1  0
 16 11  1  0
M  END
>  <pIC50>  (542) 
5.04

>  <ChEMBL_ID>  (542) 
CHEMBL2440429

>  <document_journal>  (542) 
Bioorg. Med. Chem. Lett.

>  <bao_endpoint>  (542) 
BAO_0000190

>  <potential_duplicate>  (542) 
False

>  <uo_units>  (542) 
UO_0000065

>  <canonical_smiles>  (542) 
OP(=O)(O)C(Nc1cccc2ccccc12)P(=O)(O)O

>  <parent_molecule_chembl_id>  (542) 
CHEMBL2440429

>  <assay_type>  (542) 
B

>  <src_id>  (542) 
1

>  <ligand_efficiency>  (542) 
{u'le': u'0.34', u'bei': u'15.89', u'sei': u'3.44', u'lle': u'3.25'}

>  <standard_flag>  (542) 
True

>  <molecule_chembl_id>  (542) 
CHEMBL2440429

>  <target_organism>  (542) 
Homo sapiens

>  <standard_units>  (542) 
nM

>  <record_id>  (542) 
2087620

>  <document_chembl_id>  (542) 
CHEMBL3232909

>  <bao_format>  (542) 
BAO_0000357

>  <data_validity_description>  (542) 
None

>  <activity_id>  (542) 
14596563

>  <standard_type>  (542) 
IC50

>  <target_chembl_id>  (542) 
CHEMBL205

>  <data_validity_comment>  (542) 
None

>  <published_value>  (542) 
9.091

>  <document_year>  (542) 
2014

>  <target_pref_name>  (542) 
Carbonic anhydrase II

>  <assay_chembl_id>  (542) 
CHEMBL3240045

>  <standard_relation>  (542) 
=

>  <assay_description>  (542) 
Inhibition of human recombinant carbonic anhydrase 2 preincubated for 15 mins by stopped flow CO2 hydration method

>  <published_relation>  (542) 
=

>  <standard_value>  (542) 
9091

>  <qudt_units>  (542) 
http://www.openphacts.org/units/Nanomolar

>  <target_tax_id>  (542) 
9606

>  <bao_label>  (542) 
single protein format

>  <published_units>  (542) 
uM

>  <pchembl_value>  (542) 
5.04

>  <published_type>  (542) 
IC50

>  <activity_comment>  (542) 
None

$$$$

     RDKit          

 20 20  0  0  0  0  0  0  0  0999 V2000
    0.0000    0.0000    0.0000 O   0  0  0  0  0  0  0  0  0  0  0  0
    0.0000    0.0000    0.0000 P   0  0  0  0  0  0  0  0  0  0  0  0
    0.0000    0.0000    0.0000 O   0  0  0  0  0  0  0  0  0  0  0  0
    0.0000    0.0000    0.0000 O   0  0  0  0  0  0  0  0  0  0  0  0
    0.0000    0.0000    0.0000 C   0  0  0  0  0  0  0  0  0  0  0  0
    0.0000    0.0000    0.0000 N   0  0  0  0  0  0  0  0  0  0  0  0
    0.0000    0.0000    0.0000 S   0  0  0  0  0  0  0  0  0  0  0  0
    0.0000    0.0000    0.0000 O   0  0  0  0  0  0  0  0  0  0  0  0
    0.0000    0.0000    0.0000 O   0  0  0  0  0  0  0  0  0  0  0  0
    0.0000    0.0000    0.0000 C   0  0  0  0  0  0  0  0  0  0  0  0
    0.0000    0.0000    0.0000 C   0  0  0  0  0  0  0  0  0  0  0  0
    0.0000    0.0000    0.0000 C   0  0  0  0  0  0  0  0  0  0  0  0
    0.0000    0.0000    0.0000 C   0  0  0  0  0  0  0  0  0  0  0  0
    0.0000    0.0000    0.0000 Cl  0  0  0  0  0  0  0  0  0  0  0  0
    0.0000    0.0000    0.0000 C   0  0  0  0  0  0  0  0  0  0  0  0
    0.0000    0.0000    0.0000 C   0  0  0  0  0  0  0  0  0  0  0  0
    0.0000    0.0000    0.0000 P   0  0  0  0  0  0  0  0  0  0  0  0
    0.0000    0.0000    0.0000 O   0  0  0  0  0  0  0  0  0  0  0  0
    0.0000    0.0000    0.0000 O   0  0  0  0  0  0  0  0  0  0  0  0
    0.0000    0.0000    0.0000 O   0  0  0  0  0  0  0  0  0  0  0  0
  1  2  1  0
  2  3  2  0
  2  4  1  0
  2  5  1  0
  5  6  1  0
  6  7  1  0
  7  8  2  0
  7  9  2  0
  7 10  1  0
 10 11  2  0
 11 12  1  0
 12 13  2  0
 13 14  1  0
 13 15  1  0
 15 16  2  0
  5 17  1  0
 17 18  2  0
 17 19  1  0
 17 20  1  0
 16 10  1  0
M  END
>  <pIC50>  (543) 
5.21

>  <ChEMBL_ID>  (543) 
CHEMBL3291001

>  <document_journal>  (543) 
Bioorg. Med. Chem. Lett.

>  <bao_endpoint>  (543) 
BAO_0000190

>  <potential_duplicate>  (543) 
False

>  <uo_units>  (543) 
UO_0000065

>  <canonical_smiles>  (543) 
OP(=O)(O)C(NS(=O)(=O)c1ccc(Cl)cc1)P(=O)(O)O

>  <parent_molecule_chembl_id>  (543) 
CHEMBL3291001

>  <assay_type>  (543) 
B

>  <src_id>  (543) 
1

>  <ligand_efficiency>  (543) 
{u'le': u'0.36', u'bei': u'14.25', u'sei': u'2.75', u'lle': u'4.56'}

>  <standard_flag>  (543) 
True

>  <molecule_chembl_id>  (543) 
CHEMBL3291001

>  <target_organism>  (543) 
Homo sapiens

>  <standard_units>  (543) 
nM

>  <record_id>  (543) 
2119111

>  <document_chembl_id>  (543) 
CHEMBL3286097

>  <bao_format>  (543) 
BAO_0000357

>  <data_validity_description>  (543) 
None

>  <activity_id>  (543) 
14712858

>  <standard_type>  (543) 
IC50

>  <target_chembl_id>  (543) 
CHEMBL205

>  <data_validity_comment>  (543) 
None

>  <published_value>  (543) 
6.16

>  <document_year>  (543) 
2014

>  <target_pref_name>  (543) 
Carbonic anhydrase II

>  <assay_chembl_id>  (543) 
CHEMBL3292802

>  <standard_relation>  (543) 
=

>  <assay_description>  (543) 
Inhibition of human recombinant carbonic anhydrase 2 pretreated for 15 mins by stopped flow CO2 hydrase assay

>  <published_relation>  (543) 
=

>  <standard_value>  (543) 
6160

>  <qudt_units>  (543) 
http://www.openphacts.org/units/Nanomolar

>  <target_tax_id>  (543) 
9606

>  <bao_label>  (543) 
single protein format

>  <published_units>  (543) 
uM

>  <pchembl_value>  (543) 
5.21

>  <published_type>  (543) 
IC50

>  <activity_comment>  (543) 
None

$$$$

     RDKit          

 22 22  0  0  0  0  0  0  0  0999 V2000
    0.0000    0.0000    0.0000 O   0  0  0  0  0  0  0  0  0  0  0  0
    0.0000    0.0000    0.0000 P   0  0  0  0  0  0  0  0  0  0  0  0
    0.0000    0.0000    0.0000 O   0  0  0  0  0  0  0  0  0  0  0  0
    0.0000    0.0000    0.0000 O   0  0  0  0  0  0  0  0  0  0  0  0
    0.0000    0.0000    0.0000 C   0  0  0  0  0  0  0  0  0  0  0  0
    0.0000    0.0000    0.0000 N   0  0  0  0  0  0  0  0  0  0  0  0
    0.0000    0.0000    0.0000 S   0  0  0  0  0  0  0  0  0  0  0  0
    0.0000    0.0000    0.0000 O   0  0  0  0  0  0  0  0  0  0  0  0
    0.0000    0.0000    0.0000 O   0  0  0  0  0  0  0  0  0  0  0  0
    0.0000    0.0000    0.0000 C   0  0  0  0  0  0  0  0  0  0  0  0
    0.0000    0.0000    0.0000 C   0  0  0  0  0  0  0  0  0  0  0  0
    0.0000    0.0000    0.0000 C   0  0  0  0  0  0  0  0  0  0  0  0
    0.0000    0.0000    0.0000 C   0  0  0  0  0  0  0  0  0  0  0  0
    0.0000    0.0000    0.0000 C   0  0  0  0  0  0  0  0  0  0  0  0
    0.0000    0.0000    0.0000 C   0  0  0  0  0  0  0  0  0  0  0  0
    0.0000    0.0000    0.0000 N   0  0  0  0  0  0  0  0  0  0  0  0
    0.0000    0.0000    0.0000 O   0  0  0  0  0  0  0  0  0  0  0  0
    0.0000    0.0000    0.0000 O   0  0  0  0  0  0  0  0  0  0  0  0
    0.0000    0.0000    0.0000 P   0  0  0  0  0  0  0  0  0  0  0  0
    0.0000    0.0000    0.0000 O   0  0  0  0  0  0  0  0  0  0  0  0
    0.0000    0.0000    0.0000 O   0  0  0  0  0  0  0  0  0  0  0  0
    0.0000    0.0000    0.0000 O   0  0  0  0  0  0  0  0  0  0  0  0
  1  2  1  0
  2  3  2  0
  2  4  1  0
  2  5  1  0
  5  6  1  0
  6  7  1  0
  7  8  2  0
  7  9  2  0
  7 10  1  0
 10 11  2  0
 11 12  1  0
 12 13  2  0
 13 14  1  0
 14 15  2  0
 13 16  1  0
 16 17  2  0
 16 18  1  0
  5 19  1  0
 19 20  2  0
 19 21  1  0
 19 22  1  0
 15 10  1  0
M  CHG  2  16   1  18  -1
M  END
>  <pIC50>  (544) 
5.74

>  <ChEMBL_ID>  (544) 
CHEMBL3291007

>  <document_journal>  (544) 
Bioorg. Med. Chem. Lett.

>  <bao_endpoint>  (544) 
BAO_0000190

>  <potential_duplicate>  (544) 
False

>  <uo_units>  (544) 
UO_0000065

>  <canonical_smiles>  (544) 
OP(=O)(O)C(NS(=O)(=O)c1ccc(cc1)[N+](=O)[O-])P(=O)(O)O

>  <parent_molecule_chembl_id>  (544) 
CHEMBL3291007

>  <assay_type>  (544) 
B

>  <src_id>  (544) 
1

>  <ligand_efficiency>  (544) 
{u'le': u'0.36', u'bei': u'15.25', u'sei': u'2.44', u'lle': u'5.86'}

>  <standard_flag>  (544) 
True

>  <molecule_chembl_id>  (544) 
CHEMBL3291007

>  <target_organism>  (544) 
Homo sapiens

>  <standard_units>  (544) 
nM

>  <record_id>  (544) 
2119117

>  <document_chembl_id>  (544) 
CHEMBL3286097

>  <bao_format>  (544) 
BAO_0000357

>  <data_validity_description>  (544) 
None

>  <activity_id>  (544) 
14712864

>  <standard_type>  (544) 
IC50

>  <target_chembl_id>  (544) 
CHEMBL205

>  <data_validity_comment>  (544) 
None

>  <published_value>  (544) 
1.83

>  <document_year>  (544) 
2014

>  <target_pref_name>  (544) 
Carbonic anhydrase II

>  <assay_chembl_id>  (544) 
CHEMBL3292802

>  <standard_relation>  (544) 
=

>  <assay_description>  (544) 
Inhibition of human recombinant carbonic anhydrase 2 pretreated for 15 mins by stopped flow CO2 hydrase assay

>  <published_relation>  (544) 
=

>  <standard_value>  (544) 
1830

>  <qudt_units>  (544) 
http://www.openphacts.org/units/Nanomolar

>  <target_tax_id>  (544) 
9606

>  <bao_label>  (544) 
single protein format

>  <published_units>  (544) 
uM

>  <pchembl_value>  (544) 
5.74

>  <published_type>  (544) 
IC50

>  <activity_comment>  (544) 
None

$$$$

     RDKit          

 22 22  0  0  0  0  0  0  0  0999 V2000
    0.0000    0.0000    0.0000 O   0  0  0  0  0  0  0  0  0  0  0  0
    0.0000    0.0000    0.0000 P   0  0  0  0  0  0  0  0  0  0  0  0
    0.0000    0.0000    0.0000 O   0  0  0  0  0  0  0  0  0  0  0  0
    0.0000    0.0000    0.0000 O   0  0  0  0  0  0  0  0  0  0  0  0
    0.0000    0.0000    0.0000 C   0  0  0  0  0  0  0  0  0  0  0  0
    0.0000    0.0000    0.0000 N   0  0  0  0  0  0  0  0  0  0  0  0
    0.0000    0.0000    0.0000 S   0  0  0  0  0  0  0  0  0  0  0  0
    0.0000    0.0000    0.0000 O   0  0  0  0  0  0  0  0  0  0  0  0
    0.0000    0.0000    0.0000 O   0  0  0  0  0  0  0  0  0  0  0  0
    0.0000    0.0000    0.0000 C   0  0  0  0  0  0  0  0  0  0  0  0
    0.0000    0.0000    0.0000 C   0  0  0  0  0  0  0  0  0  0  0  0
    0.0000    0.0000    0.0000 C   0  0  0  0  0  0  0  0  0  0  0  0
    0.0000    0.0000    0.0000 C   0  0  0  0  0  0  0  0  0  0  0  0
    0.0000    0.0000    0.0000 C   0  0  0  0  0  0  0  0  0  0  0  0
    0.0000    0.0000    0.0000 C   0  0  0  0  0  0  0  0  0  0  0  0
    0.0000    0.0000    0.0000 N   0  0  0  0  0  0  0  0  0  0  0  0
    0.0000    0.0000    0.0000 O   0  0  0  0  0  0  0  0  0  0  0  0
    0.0000    0.0000    0.0000 O   0  0  0  0  0  0  0  0  0  0  0  0
    0.0000    0.0000    0.0000 P   0  0  0  0  0  0  0  0  0  0  0  0
    0.0000    0.0000    0.0000 O   0  0  0  0  0  0  0  0  0  0  0  0
    0.0000    0.0000    0.0000 O   0  0  0  0  0  0  0  0  0  0  0  0
    0.0000    0.0000    0.0000 O   0  0  0  0  0  0  0  0  0  0  0  0
  1  2  1  0
  2  3  2  0
  2  4  1  0
  2  5  1  0
  5  6  1  0
  6  7  1  0
  7  8  2  0
  7  9  2  0
  7 10  1  0
 10 11  2  0
 11 12  1  0
 12 13  2  0
 13 14  1  0
 14 15  2  0
 14 16  1  0
 16 17  2  0
 16 18  1  0
  5 19  1  0
 19 20  2  0
 19 21  1  0
 19 22  1  0
 15 10  1  0
M  CHG  2  16   1  18  -1
M  END
>  <pIC50>  (545) 
5.42

>  <ChEMBL_ID>  (545) 
CHEMBL3291008

>  <document_journal>  (545) 
Bioorg. Med. Chem. Lett.

>  <bao_endpoint>  (545) 
BAO_0000190

>  <potential_duplicate>  (545) 
False

>  <uo_units>  (545) 
UO_0000065

>  <canonical_smiles>  (545) 
OP(=O)(O)C(NS(=O)(=O)c1cccc(c1)[N+](=O)[O-])P(=O)(O)O

>  <parent_molecule_chembl_id>  (545) 
CHEMBL3291008

>  <assay_type>  (545) 
B

>  <src_id>  (545) 
1

>  <ligand_efficiency>  (545) 
{u'le': u'0.34', u'bei': u'14.4', u'sei': u'2.31', u'lle': u'5.54'}

>  <standard_flag>  (545) 
True

>  <molecule_chembl_id>  (545) 
CHEMBL3291008

>  <target_organism>  (545) 
Homo sapiens

>  <standard_units>  (545) 
nM

>  <record_id>  (545) 
2119118

>  <document_chembl_id>  (545) 
CHEMBL3286097

>  <bao_format>  (545) 
BAO_0000357

>  <data_validity_description>  (545) 
None

>  <activity_id>  (545) 
14712865

>  <standard_type>  (545) 
IC50

>  <target_chembl_id>  (545) 
CHEMBL205

>  <data_validity_comment>  (545) 
None

>  <published_value>  (545) 
3.82

>  <document_year>  (545) 
2014

>  <target_pref_name>  (545) 
Carbonic anhydrase II

>  <assay_chembl_id>  (545) 
CHEMBL3292802

>  <standard_relation>  (545) 
=

>  <assay_description>  (545) 
Inhibition of human recombinant carbonic anhydrase 2 pretreated for 15 mins by stopped flow CO2 hydrase assay

>  <published_relation>  (545) 
=

>  <standard_value>  (545) 
3820

>  <qudt_units>  (545) 
http://www.openphacts.org/units/Nanomolar

>  <target_tax_id>  (545) 
9606

>  <bao_label>  (545) 
single protein format

>  <published_units>  (545) 
uM

>  <pchembl_value>  (545) 
5.42

>  <published_type>  (545) 
IC50

>  <activity_comment>  (545) 
None

$$$$

     RDKit          

 25 26  0  0  0  0  0  0  0  0999 V2000
    0.0000    0.0000    0.0000 O   0  0  0  0  0  0  0  0  0  0  0  0
    0.0000    0.0000    0.0000 P   0  0  0  0  0  0  0  0  0  0  0  0
    0.0000    0.0000    0.0000 O   0  0  0  0  0  0  0  0  0  0  0  0
    0.0000    0.0000    0.0000 O   0  0  0  0  0  0  0  0  0  0  0  0
    0.0000    0.0000    0.0000 C   0  0  0  0  0  0  0  0  0  0  0  0
    0.0000    0.0000    0.0000 N   0  0  0  0  0  0  0  0  0  0  0  0
    0.0000    0.0000    0.0000 S   0  0  0  0  0  0  0  0  0  0  0  0
    0.0000    0.0000    0.0000 O   0  0  0  0  0  0  0  0  0  0  0  0
    0.0000    0.0000    0.0000 O   0  0  0  0  0  0  0  0  0  0  0  0
    0.0000    0.0000    0.0000 C   0  0  0  0  0  0  0  0  0  0  0  0
    0.0000    0.0000    0.0000 C   0  0  0  0  0  0  0  0  0  0  0  0
    0.0000    0.0000    0.0000 C   0  0  0  0  0  0  0  0  0  0  0  0
    0.0000    0.0000    0.0000 C   0  0  0  0  0  0  0  0  0  0  0  0
    0.0000    0.0000    0.0000 C   0  0  0  0  0  0  0  0  0  0  0  0
    0.0000    0.0000    0.0000 C   0  0  0  0  0  0  0  0  0  0  0  0
    0.0000    0.0000    0.0000 C   0  0  0  0  0  0  0  0  0  0  0  0
    0.0000    0.0000    0.0000 C   0  0  0  0  0  0  0  0  0  0  0  0
    0.0000    0.0000    0.0000 C   0  0  0  0  0  0  0  0  0  0  0  0
    0.0000    0.0000    0.0000 C   0  0  0  0  0  0  0  0  0  0  0  0
    0.0000    0.0000    0.0000 C   0  0  0  0  0  0  0  0  0  0  0  0
    0.0000    0.0000    0.0000 C   0  0  0  0  0  0  0  0  0  0  0  0
    0.0000    0.0000    0.0000 P   0  0  0  0  0  0  0  0  0  0  0  0
    0.0000    0.0000    0.0000 O   0  0  0  0  0  0  0  0  0  0  0  0
    0.0000    0.0000    0.0000 O   0  0  0  0  0  0  0  0  0  0  0  0
    0.0000    0.0000    0.0000 O   0  0  0  0  0  0  0  0  0  0  0  0
  1  2  1  0
  2  3  2  0
  2  4  1  0
  2  5  1  0
  5  6  1  0
  6  7  1  0
  7  8  2  0
  7  9  2  0
  7 10  1  0
 10 11  2  0
 11 12  1  0
 12 13  2  0
 13 14  1  0
 14 15  2  0
 13 16  1  0
 16 17  2  0
 17 18  1  0
 18 19  2  0
 19 20  1  0
 20 21  2  0
  5 22  1  0
 22 23  2  0
 22 24  1  0
 22 25  1  0
 15 10  1  0
 21 16  1  0
M  END
>  <pIC50>  (546) 
5.85

>  <ChEMBL_ID>  (546) 
CHEMBL3291009

>  <document_journal>  (546) 
Bioorg. Med. Chem. Lett.

>  <bao_endpoint>  (546) 
BAO_0000190

>  <potential_duplicate>  (546) 
False

>  <uo_units>  (546) 
UO_0000065

>  <canonical_smiles>  (546) 
OP(=O)(O)C(NS(=O)(=O)c1ccc(cc1)c2ccccc2)P(=O)(O)O

>  <parent_molecule_chembl_id>  (546) 
CHEMBL3291009

>  <assay_type>  (546) 
B

>  <src_id>  (546) 
1

>  <ligand_efficiency>  (546) 
{u'le': u'0.32', u'bei': u'14.37', u'sei': u'3.09', u'lle': u'4.34'}

>  <standard_flag>  (546) 
True

>  <molecule_chembl_id>  (546) 
CHEMBL3291009

>  <target_organism>  (546) 
Homo sapiens

>  <standard_units>  (546) 
nM

>  <record_id>  (546) 
2119119

>  <document_chembl_id>  (546) 
CHEMBL3286097

>  <bao_format>  (546) 
BAO_0000357

>  <data_validity_description>  (546) 
None

>  <activity_id>  (546) 
14712866

>  <standard_type>  (546) 
IC50

>  <target_chembl_id>  (546) 
CHEMBL205

>  <data_validity_comment>  (546) 
None

>  <published_value>  (546) 
1.41

>  <document_year>  (546) 
2014

>  <target_pref_name>  (546) 
Carbonic anhydrase II

>  <assay_chembl_id>  (546) 
CHEMBL3292802

>  <standard_relation>  (546) 
=

>  <assay_description>  (546) 
Inhibition of human recombinant carbonic anhydrase 2 pretreated for 15 mins by stopped flow CO2 hydrase assay

>  <published_relation>  (546) 
=

>  <standard_value>  (546) 
1410

>  <qudt_units>  (546) 
http://www.openphacts.org/units/Nanomolar

>  <target_tax_id>  (546) 
9606

>  <bao_label>  (546) 
single protein format

>  <published_units>  (546) 
uM

>  <pchembl_value>  (546) 
5.85

>  <published_type>  (546) 
IC50

>  <activity_comment>  (546) 
None

$$$$

     RDKit          

 24 25  0  0  0  0  0  0  0  0999 V2000
    0.0000    0.0000    0.0000 O   0  0  0  0  0  0  0  0  0  0  0  0
    0.0000    0.0000    0.0000 P   0  0  0  0  0  0  0  0  0  0  0  0
    0.0000    0.0000    0.0000 O   0  0  0  0  0  0  0  0  0  0  0  0
    0.0000    0.0000    0.0000 O   0  0  0  0  0  0  0  0  0  0  0  0
    0.0000    0.0000    0.0000 C   0  0  0  0  0  0  0  0  0  0  0  0
    0.0000    0.0000    0.0000 N   0  0  0  0  0  0  0  0  0  0  0  0
    0.0000    0.0000    0.0000 S   0  0  0  0  0  0  0  0  0  0  0  0
    0.0000    0.0000    0.0000 O   0  0  0  0  0  0  0  0  0  0  0  0
    0.0000    0.0000    0.0000 O   0  0  0  0  0  0  0  0  0  0  0  0
    0.0000    0.0000    0.0000 C   0  0  0  0  0  0  0  0  0  0  0  0
    0.0000    0.0000    0.0000 C   0  0  0  0  0  0  0  0  0  0  0  0
    0.0000    0.0000    0.0000 C   0  0  0  0  0  0  0  0  0  0  0  0
    0.0000    0.0000    0.0000 C   0  0  0  0  0  0  0  0  0  0  0  0
    0.0000    0.0000    0.0000 C   0  0  0  0  0  0  0  0  0  0  0  0
    0.0000    0.0000    0.0000 C   0  0  0  0  0  0  0  0  0  0  0  0
    0.0000    0.0000    0.0000 C   0  0  0  0  0  0  0  0  0  0  0  0
    0.0000    0.0000    0.0000 C   0  0  0  0  0  0  0  0  0  0  0  0
    0.0000    0.0000    0.0000 C   0  0  0  0  0  0  0  0  0  0  0  0
    0.0000    0.0000    0.0000 C   0  0  0  0  0  0  0  0  0  0  0  0
    0.0000    0.0000    0.0000 S   0  0  0  0  0  0  0  0  0  0  0  0
    0.0000    0.0000    0.0000 P   0  0  0  0  0  0  0  0  0  0  0  0
    0.0000    0.0000    0.0000 O   0  0  0  0  0  0  0  0  0  0  0  0
    0.0000    0.0000    0.0000 O   0  0  0  0  0  0  0  0  0  0  0  0
    0.0000    0.0000    0.0000 O   0  0  0  0  0  0  0  0  0  0  0  0
  1  2  1  0
  2  3  2  0
  2  4  1  0
  2  5  1  0
  5  6  1  0
  6  7  1  0
  7  8  2  0
  7  9  2  0
  7 10  1  0
 10 11  2  0
 11 12  1  0
 12 13  2  0
 13 14  1  0
 14 15  2  0
 13 16  1  0
 16 17  2  0
 17 18  1  0
 18 19  2  0
 19 20  1  0
  5 21  1  0
 21 22  2  0
 21 23  1  0
 21 24  1  0
 15 10  1  0
 20 16  1  0
M  END
>  <pIC50>  (547) 
6.3

>  <ChEMBL_ID>  (547) 
CHEMBL3291010

>  <document_journal>  (547) 
Bioorg. Med. Chem. Lett.

>  <bao_endpoint>  (547) 
BAO_0000190

>  <potential_duplicate>  (547) 
False

>  <uo_units>  (547) 
UO_0000065

>  <canonical_smiles>  (547) 
OP(=O)(O)C(NS(=O)(=O)c1ccc(cc1)c2cccs2)P(=O)(O)O

>  <parent_molecule_chembl_id>  (547) 
CHEMBL3291010

>  <assay_type>  (547) 
B

>  <src_id>  (547) 
1

>  <ligand_efficiency>  (547) 
{u'le': u'0.36', u'bei': u'15.24', u'sei': u'2.9', u'lle': u'4.84'}

>  <standard_flag>  (547) 
True

>  <molecule_chembl_id>  (547) 
CHEMBL3291010

>  <target_organism>  (547) 
Homo sapiens

>  <standard_units>  (547) 
nM

>  <record_id>  (547) 
2119120

>  <document_chembl_id>  (547) 
CHEMBL3286097

>  <bao_format>  (547) 
BAO_0000357

>  <data_validity_description>  (547) 
None

>  <activity_id>  (547) 
14712867

>  <standard_type>  (547) 
IC50

>  <target_chembl_id>  (547) 
CHEMBL205

>  <data_validity_comment>  (547) 
None

>  <published_value>  (547) 
0.504

>  <document_year>  (547) 
2014

>  <target_pref_name>  (547) 
Carbonic anhydrase II

>  <assay_chembl_id>  (547) 
CHEMBL3292802

>  <standard_relation>  (547) 
=

>  <assay_description>  (547) 
Inhibition of human recombinant carbonic anhydrase 2 pretreated for 15 mins by stopped flow CO2 hydrase assay

>  <published_relation>  (547) 
=

>  <standard_value>  (547) 
504

>  <qudt_units>  (547) 
http://www.openphacts.org/units/Nanomolar

>  <target_tax_id>  (547) 
9606

>  <bao_label>  (547) 
single protein format

>  <published_units>  (547) 
uM

>  <pchembl_value>  (547) 
6.3

>  <published_type>  (547) 
IC50

>  <activity_comment>  (547) 
None

$$$$

     RDKit          

 26 27  0  0  0  0  0  0  0  0999 V2000
    0.0000    0.0000    0.0000 O   0  0  0  0  0  0  0  0  0  0  0  0
    0.0000    0.0000    0.0000 P   0  0  0  0  0  0  0  0  0  0  0  0
    0.0000    0.0000    0.0000 O   0  0  0  0  0  0  0  0  0  0  0  0
    0.0000    0.0000    0.0000 O   0  0  0  0  0  0  0  0  0  0  0  0
    0.0000    0.0000    0.0000 C   0  0  0  0  0  0  0  0  0  0  0  0
    0.0000    0.0000    0.0000 N   0  0  0  0  0  0  0  0  0  0  0  0
    0.0000    0.0000    0.0000 S   0  0  0  0  0  0  0  0  0  0  0  0
    0.0000    0.0000    0.0000 O   0  0  0  0  0  0  0  0  0  0  0  0
    0.0000    0.0000    0.0000 O   0  0  0  0  0  0  0  0  0  0  0  0
    0.0000    0.0000    0.0000 C   0  0  0  0  0  0  0  0  0  0  0  0
    0.0000    0.0000    0.0000 C   0  0  0  0  0  0  0  0  0  0  0  0
    0.0000    0.0000    0.0000 C   0  0  0  0  0  0  0  0  0  0  0  0
    0.0000    0.0000    0.0000 C   0  0  0  0  0  0  0  0  0  0  0  0
    0.0000    0.0000    0.0000 C   0  0  0  0  0  0  0  0  0  0  0  0
    0.0000    0.0000    0.0000 C   0  0  0  0  0  0  0  0  0  0  0  0
    0.0000    0.0000    0.0000 C   0  0  0  0  0  0  0  0  0  0  0  0
    0.0000    0.0000    0.0000 C   0  0  0  0  0  0  0  0  0  0  0  0
    0.0000    0.0000    0.0000 C   0  0  0  0  0  0  0  0  0  0  0  0
    0.0000    0.0000    0.0000 C   0  0  0  0  0  0  0  0  0  0  0  0
    0.0000    0.0000    0.0000 Cl  0  0  0  0  0  0  0  0  0  0  0  0
    0.0000    0.0000    0.0000 C   0  0  0  0  0  0  0  0  0  0  0  0
    0.0000    0.0000    0.0000 C   0  0  0  0  0  0  0  0  0  0  0  0
    0.0000    0.0000    0.0000 P   0  0  0  0  0  0  0  0  0  0  0  0
    0.0000    0.0000    0.0000 O   0  0  0  0  0  0  0  0  0  0  0  0
    0.0000    0.0000    0.0000 O   0  0  0  0  0  0  0  0  0  0  0  0
    0.0000    0.0000    0.0000 O   0  0  0  0  0  0  0  0  0  0  0  0
  1  2  1  0
  2  3  2  0
  2  4  1  0
  2  5  1  0
  5  6  1  0
  6  7  1  0
  7  8  2  0
  7  9  2  0
  7 10  1  0
 10 11  2  0
 11 12  1  0
 12 13  2  0
 13 14  1  0
 14 15  2  0
 13 16  1  0
 16 17  2  0
 17 18  1  0
 18 19  2  0
 19 20  1  0
 19 21  1  0
 21 22  2  0
  5 23  1  0
 23 24  2  0
 23 25  1  0
 23 26  1  0
 15 10  1  0
 22 16  1  0
M  END
>  <pIC50>  (548) 
5.58

>  <ChEMBL_ID>  (548) 
CHEMBL3291011

>  <document_journal>  (548) 
Bioorg. Med. Chem. Lett.

>  <bao_endpoint>  (548) 
BAO_0000190

>  <potential_duplicate>  (548) 
False

>  <uo_units>  (548) 
UO_0000065

>  <canonical_smiles>  (548) 
OP(=O)(O)C(NS(=O)(=O)c1ccc(cc1)c2ccc(Cl)cc2)P(=O)(O)O

>  <parent_molecule_chembl_id>  (548) 
CHEMBL3291011

>  <assay_type>  (548) 
B

>  <src_id>  (548) 
1

>  <ligand_efficiency>  (548) 
{u'le': u'0.29', u'bei': u'12.62', u'sei': u'2.95', u'lle': u'3.41'}

>  <standard_flag>  (548) 
True

>  <molecule_chembl_id>  (548) 
CHEMBL3291011

>  <target_organism>  (548) 
Homo sapiens

>  <standard_units>  (548) 
nM

>  <record_id>  (548) 
2119121

>  <document_chembl_id>  (548) 
CHEMBL3286097

>  <bao_format>  (548) 
BAO_0000357

>  <data_validity_description>  (548) 
None

>  <activity_id>  (548) 
14712868

>  <standard_type>  (548) 
IC50

>  <target_chembl_id>  (548) 
CHEMBL205

>  <data_validity_comment>  (548) 
None

>  <published_value>  (548) 
2.66

>  <document_year>  (548) 
2014

>  <target_pref_name>  (548) 
Carbonic anhydrase II

>  <assay_chembl_id>  (548) 
CHEMBL3292802

>  <standard_relation>  (548) 
=

>  <assay_description>  (548) 
Inhibition of human recombinant carbonic anhydrase 2 pretreated for 15 mins by stopped flow CO2 hydrase assay

>  <published_relation>  (548) 
=

>  <standard_value>  (548) 
2660

>  <qudt_units>  (548) 
http://www.openphacts.org/units/Nanomolar

>  <target_tax_id>  (548) 
9606

>  <bao_label>  (548) 
single protein format

>  <published_units>  (548) 
uM

>  <pchembl_value>  (548) 
5.58

>  <published_type>  (548) 
IC50

>  <activity_comment>  (548) 
None

$$$$

     RDKit          

 27 28  0  0  0  0  0  0  0  0999 V2000
    0.0000    0.0000    0.0000 C   0  0  0  0  0  0  0  0  0  0  0  0
    0.0000    0.0000    0.0000 O   0  0  0  0  0  0  0  0  0  0  0  0
    0.0000    0.0000    0.0000 C   0  0  0  0  0  0  0  0  0  0  0  0
    0.0000    0.0000    0.0000 C   0  0  0  0  0  0  0  0  0  0  0  0
    0.0000    0.0000    0.0000 C   0  0  0  0  0  0  0  0  0  0  0  0
    0.0000    0.0000    0.0000 C   0  0  0  0  0  0  0  0  0  0  0  0
    0.0000    0.0000    0.0000 C   0  0  0  0  0  0  0  0  0  0  0  0
    0.0000    0.0000    0.0000 C   0  0  0  0  0  0  0  0  0  0  0  0
    0.0000    0.0000    0.0000 C   0  0  0  0  0  0  0  0  0  0  0  0
    0.0000    0.0000    0.0000 C   0  0  0  0  0  0  0  0  0  0  0  0
    0.0000    0.0000    0.0000 C   0  0  0  0  0  0  0  0  0  0  0  0
    0.0000    0.0000    0.0000 C   0  0  0  0  0  0  0  0  0  0  0  0
    0.0000    0.0000    0.0000 C   0  0  0  0  0  0  0  0  0  0  0  0
    0.0000    0.0000    0.0000 C   0  0  0  0  0  0  0  0  0  0  0  0
    0.0000    0.0000    0.0000 S   0  0  0  0  0  0  0  0  0  0  0  0
    0.0000    0.0000    0.0000 O   0  0  0  0  0  0  0  0  0  0  0  0
    0.0000    0.0000    0.0000 O   0  0  0  0  0  0  0  0  0  0  0  0
    0.0000    0.0000    0.0000 N   0  0  0  0  0  0  0  0  0  0  0  0
    0.0000    0.0000    0.0000 C   0  0  0  0  0  0  0  0  0  0  0  0
    0.0000    0.0000    0.0000 P   0  0  0  0  0  0  0  0  0  0  0  0
    0.0000    0.0000    0.0000 O   0  0  0  0  0  0  0  0  0  0  0  0
    0.0000    0.0000    0.0000 O   0  0  0  0  0  0  0  0  0  0  0  0
    0.0000    0.0000    0.0000 O   0  0  0  0  0  0  0  0  0  0  0  0
    0.0000    0.0000    0.0000 P   0  0  0  0  0  0  0  0  0  0  0  0
    0.0000    0.0000    0.0000 O   0  0  0  0  0  0  0  0  0  0  0  0
    0.0000    0.0000    0.0000 O   0  0  0  0  0  0  0  0  0  0  0  0
    0.0000    0.0000    0.0000 O   0  0  0  0  0  0  0  0  0  0  0  0
  1  2  1  0
  2  3  1  0
  3  4  2  0
  4  5  1  0
  5  6  2  0
  6  7  1  0
  7  8  2  0
  6  9  1  0
  9 10  2  0
 10 11  1  0
 11 12  2  0
 12 13  1  0
 13 14  2  0
 12 15  1  0
 15 16  2  0
 15 17  2  0
 15 18  1  0
 18 19  1  0
 19 20  1  0
 20 21  2  0
 20 22  1  0
 20 23  1  0
 19 24  1  0
 24 25  2  0
 24 26  1  0
 24 27  1  0
  8  3  1  0
 14  9  1  0
M  END
>  <pIC50>  (549) 
7.16

>  <ChEMBL_ID>  (549) 
CHEMBL3291012

>  <document_journal>  (549) 
Bioorg. Med. Chem. Lett.

>  <bao_endpoint>  (549) 
BAO_0000190

>  <potential_duplicate>  (549) 
False

>  <uo_units>  (549) 
UO_0000065

>  <canonical_smiles>  (549) 
COc1ccc(cc1)c2ccc(cc2)S(=O)(=O)NC(P(=O)(O)O)P(=O)(O)O

>  <parent_molecule_chembl_id>  (549) 
CHEMBL3291012

>  <assay_type>  (549) 
B

>  <src_id>  (549) 
1

>  <ligand_efficiency>  (549) 
{u'le': u'0.36', u'bei': u'16.36', u'sei': u'3.61', u'lle': u'5.66'}

>  <standard_flag>  (549) 
True

>  <molecule_chembl_id>  (549) 
CHEMBL3291012

>  <target_organism>  (549) 
Homo sapiens

>  <standard_units>  (549) 
nM

>  <record_id>  (549) 
2119122

>  <document_chembl_id>  (549) 
CHEMBL3286097

>  <bao_format>  (549) 
BAO_0000357

>  <data_validity_description>  (549) 
None

>  <activity_id>  (549) 
14712869

>  <standard_type>  (549) 
IC50

>  <target_chembl_id>  (549) 
CHEMBL205

>  <data_validity_comment>  (549) 
None

>  <published_value>  (549) 
0.07

>  <document_year>  (549) 
2014

>  <target_pref_name>  (549) 
Carbonic anhydrase II

>  <assay_chembl_id>  (549) 
CHEMBL3292802

>  <standard_relation>  (549) 
=

>  <assay_description>  (549) 
Inhibition of human recombinant carbonic anhydrase 2 pretreated for 15 mins by stopped flow CO2 hydrase assay

>  <published_relation>  (549) 
=

>  <standard_value>  (549) 
70

>  <qudt_units>  (549) 
http://www.openphacts.org/units/Nanomolar

>  <target_tax_id>  (549) 
9606

>  <bao_label>  (549) 
single protein format

>  <published_units>  (549) 
uM

>  <pchembl_value>  (549) 
7.16

>  <published_type>  (549) 
IC50

>  <activity_comment>  (549) 
None

$$$$

     RDKit          

 28 29  0  0  0  0  0  0  0  0999 V2000
    0.0000    0.0000    0.0000 O   0  0  0  0  0  0  0  0  0  0  0  0
    0.0000    0.0000    0.0000 P   0  0  0  0  0  0  0  0  0  0  0  0
    0.0000    0.0000    0.0000 O   0  0  0  0  0  0  0  0  0  0  0  0
    0.0000    0.0000    0.0000 O   0  0  0  0  0  0  0  0  0  0  0  0
    0.0000    0.0000    0.0000 C   0  0  0  0  0  0  0  0  0  0  0  0
    0.0000    0.0000    0.0000 N   0  0  0  0  0  0  0  0  0  0  0  0
    0.0000    0.0000    0.0000 S   0  0  0  0  0  0  0  0  0  0  0  0
    0.0000    0.0000    0.0000 O   0  0  0  0  0  0  0  0  0  0  0  0
    0.0000    0.0000    0.0000 O   0  0  0  0  0  0  0  0  0  0  0  0
    0.0000    0.0000    0.0000 C   0  0  0  0  0  0  0  0  0  0  0  0
    0.0000    0.0000    0.0000 C   0  0  0  0  0  0  0  0  0  0  0  0
    0.0000    0.0000    0.0000 C   0  0  0  0  0  0  0  0  0  0  0  0
    0.0000    0.0000    0.0000 C   0  0  0  0  0  0  0  0  0  0  0  0
    0.0000    0.0000    0.0000 C   0  0  0  0  0  0  0  0  0  0  0  0
    0.0000    0.0000    0.0000 C   0  0  0  0  0  0  0  0  0  0  0  0
    0.0000    0.0000    0.0000 C   0  0  0  0  0  0  0  0  0  0  0  0
    0.0000    0.0000    0.0000 C   0  0  0  0  0  0  0  0  0  0  0  0
    0.0000    0.0000    0.0000 C   0  0  0  0  0  0  0  0  0  0  0  0
    0.0000    0.0000    0.0000 C   0  0  0  0  0  0  0  0  0  0  0  0
    0.0000    0.0000    0.0000 C   0  0  0  0  0  0  0  0  0  0  0  0
    0.0000    0.0000    0.0000 C   0  0  0  0  0  0  0  0  0  0  0  0
    0.0000    0.0000    0.0000 N   0  0  0  0  0  0  0  0  0  0  0  0
    0.0000    0.0000    0.0000 O   0  0  0  0  0  0  0  0  0  0  0  0
    0.0000    0.0000    0.0000 O   0  0  0  0  0  0  0  0  0  0  0  0
    0.0000    0.0000    0.0000 P   0  0  0  0  0  0  0  0  0  0  0  0
    0.0000    0.0000    0.0000 O   0  0  0  0  0  0  0  0  0  0  0  0
    0.0000    0.0000    0.0000 O   0  0  0  0  0  0  0  0  0  0  0  0
    0.0000    0.0000    0.0000 O   0  0  0  0  0  0  0  0  0  0  0  0
  1  2  1  0
  2  3  2  0
  2  4  1  0
  2  5  1  0
  5  6  1  0
  6  7  1  0
  7  8  2  0
  7  9  2  0
  7 10  1  0
 10 11  2  0
 11 12  1  0
 12 13  2  0
 13 14  1  0
 14 15  2  0
 13 16  1  0
 16 17  2  0
 17 18  1  0
 18 19  2  0
 19 20  1  0
 20 21  2  0
 19 22  1  0
 22 23  2  0
 22 24  1  0
  5 25  1  0
 25 26  2  0
 25 27  1  0
 25 28  1  0
 15 10  1  0
 21 16  1  0
M  CHG  2  22   1  24  -1
M  END
>  <pIC50>  (550) 
7.15

>  <ChEMBL_ID>  (550) 
CHEMBL3291013

>  <document_journal>  (550) 
Bioorg. Med. Chem. Lett.

>  <bao_endpoint>  (550) 
BAO_0000190

>  <potential_duplicate>  (550) 
False

>  <uo_units>  (550) 
UO_0000065

>  <canonical_smiles>  (550) 
OP(=O)(O)C(NS(=O)(=O)c1ccc(cc1)c2ccc(cc2)[N+](=O)[O-])P(=O)(O)O

>  <parent_molecule_chembl_id>  (550) 
CHEMBL3291013

>  <assay_type>  (550) 
B

>  <src_id>  (550) 
1

>  <ligand_efficiency>  (550) 
{u'le': u'0.35', u'bei': u'15.81', u'sei': u'3.04', u'lle': u'5.75'}

>  <standard_flag>  (550) 
True

>  <molecule_chembl_id>  (550) 
CHEMBL3291013

>  <target_organism>  (550) 
Homo sapiens

>  <standard_units>  (550) 
nM

>  <record_id>  (550) 
2119123

>  <document_chembl_id>  (550) 
CHEMBL3286097

>  <bao_format>  (550) 
BAO_0000357

>  <data_validity_description>  (550) 
None

>  <activity_id>  (550) 
14712870

>  <standard_type>  (550) 
IC50

>  <target_chembl_id>  (550) 
CHEMBL205

>  <data_validity_comment>  (550) 
None

>  <published_value>  (550) 
0.071

>  <document_year>  (550) 
2014

>  <target_pref_name>  (550) 
Carbonic anhydrase II

>  <assay_chembl_id>  (550) 
CHEMBL3292802

>  <standard_relation>  (550) 
=

>  <assay_description>  (550) 
Inhibition of human recombinant carbonic anhydrase 2 pretreated for 15 mins by stopped flow CO2 hydrase assay

>  <published_relation>  (550) 
=

>  <standard_value>  (550) 
71

>  <qudt_units>  (550) 
http://www.openphacts.org/units/Nanomolar

>  <target_tax_id>  (550) 
9606

>  <bao_label>  (550) 
single protein format

>  <published_units>  (550) 
uM

>  <pchembl_value>  (550) 
7.15

>  <published_type>  (550) 
IC50

>  <activity_comment>  (550) 
None

$$$$

     RDKit          

 13 14  0  0  0  0  0  0  0  0999 V2000
    0.0000    0.0000    0.0000 N   0  0  0  0  0  0  0  0  0  0  0  0
    0.0000    0.0000    0.0000 C   0  0  0  0  0  0  0  0  0  0  0  0
    0.0000    0.0000    0.0000 C   0  0  0  0  0  0  0  0  0  0  0  0
    0.0000    0.0000    0.0000 C   0  0  0  0  0  0  0  0  0  0  0  0
    0.0000    0.0000    0.0000 C   0  0  0  0  0  0  0  0  0  0  0  0
    0.0000    0.0000    0.0000 C   0  0  0  0  0  0  0  0  0  0  0  0
    0.0000    0.0000    0.0000 C   0  0  0  0  0  0  0  0  0  0  0  0
    0.0000    0.0000    0.0000 C   0  0  0  0  0  0  0  0  0  0  0  0
    0.0000    0.0000    0.0000 C   0  0  0  0  0  0  0  0  0  0  0  0
    0.0000    0.0000    0.0000 C   0  0  0  0  0  0  0  0  0  0  0  0
    0.0000    0.0000    0.0000 C   0  0  0  0  0  0  0  0  0  0  0  0
    0.0000    0.0000    0.0000 C   0  0  0  0  0  0  0  0  0  0  0  0
    0.0000    0.0000    0.0000 C   0  0  0  0  0  0  0  0  0  0  0  0
  1  2  3  0
  2  3  1  0
  3  4  2  0
  4  5  1  0
  5  6  1  0
  6  7  2  0
  7  8  1  0
  8  9  2  0
  9 10  1  0
 10 11  2  0
 11 12  1  0
 12 13  2  0
 13  3  1  0
 11  6  1  0
M  END
>  <pIC50>  (551) 
5.36

>  <ChEMBL_ID>  (551) 
CHEMBL3290054

>  <document_journal>  (551) 
Bioorg. Med. Chem.

>  <bao_endpoint>  (551) 
BAO_0000190

>  <potential_duplicate>  (551) 
False

>  <uo_units>  (551) 
UO_0000065

>  <canonical_smiles>  (551) 
N#CC1=CCc2ccccc2C=C1

>  <parent_molecule_chembl_id>  (551) 
CHEMBL3290054

>  <assay_type>  (551) 
B

>  <src_id>  (551) 
1

>  <ligand_efficiency>  (551) 
{u'le': u'0.56', u'bei': u'32.05', u'sei': u'22.52', u'lle': u'2.61'}

>  <standard_flag>  (551) 
True

>  <molecule_chembl_id>  (551) 
CHEMBL3290054

>  <target_organism>  (551) 
Homo sapiens

>  <standard_units>  (551) 
nM

>  <record_id>  (551) 
2117950

>  <document_chembl_id>  (551) 
CHEMBL3286144

>  <bao_format>  (551) 
BAO_0000357

>  <data_validity_description>  (551) 
None

>  <activity_id>  (551) 
14729958

>  <standard_type>  (551) 
IC50

>  <target_chembl_id>  (551) 
CHEMBL205

>  <data_validity_comment>  (551) 
None

>  <published_value>  (551) 
4.38

>  <document_year>  (551) 
2014

>  <target_pref_name>  (551) 
Carbonic anhydrase II

>  <assay_chembl_id>  (551) 
CHEMBL3293681

>  <standard_relation>  (551) 
=

>  <assay_description>  (551) 
Inhibition of human cytosolic CA-2 assessed as p-nitrophenolate formation after 3 mins using p-nitrophenylacetate as substrate by spectrophotometer

>  <published_relation>  (551) 
=

>  <standard_value>  (551) 
4380

>  <qudt_units>  (551) 
http://www.openphacts.org/units/Nanomolar

>  <target_tax_id>  (551) 
9606

>  <bao_label>  (551) 
single protein format

>  <published_units>  (551) 
uM

>  <pchembl_value>  (551) 
5.36

>  <published_type>  (551) 
IC50

>  <activity_comment>  (551) 
None

$$$$

     RDKit          

 13 14  0  0  0  0  0  0  0  0999 V2000
    0.0000    0.0000    0.0000 N   0  0  0  0  0  0  0  0  0  0  0  0
    0.0000    0.0000    0.0000 C   0  0  0  0  0  0  0  0  0  0  0  0
    0.0000    0.0000    0.0000 C   0  0  0  0  0  0  0  0  0  0  0  0
    0.0000    0.0000    0.0000 C   0  0  0  0  0  0  0  0  0  0  0  0
    0.0000    0.0000    0.0000 C   0  0  0  0  0  0  0  0  0  0  0  0
    0.0000    0.0000    0.0000 C   0  0  0  0  0  0  0  0  0  0  0  0
    0.0000    0.0000    0.0000 C   0  0  0  0  0  0  0  0  0  0  0  0
    0.0000    0.0000    0.0000 C   0  0  0  0  0  0  0  0  0  0  0  0
    0.0000    0.0000    0.0000 C   0  0  0  0  0  0  0  0  0  0  0  0
    0.0000    0.0000    0.0000 C   0  0  0  0  0  0  0  0  0  0  0  0
    0.0000    0.0000    0.0000 C   0  0  0  0  0  0  0  0  0  0  0  0
    0.0000    0.0000    0.0000 C   0  0  0  0  0  0  0  0  0  0  0  0
    0.0000    0.0000    0.0000 C   0  0  0  0  0  0  0  0  0  0  0  0
  1  2  3  0
  2  3  1  0
  3  4  2  0
  4  5  1  0
  5  6  2  0
  6  7  1  0
  7  8  2  0
  8  9  1  0
  9 10  2  0
 10 11  1  0
 11 12  1  0
 12 13  2  0
 13  3  1  0
 10  5  1  0
M  END
>  <pIC50>  (552) 
5.39

>  <ChEMBL_ID>  (552) 
CHEMBL3290055

>  <document_journal>  (552) 
Bioorg. Med. Chem.

>  <bao_endpoint>  (552) 
BAO_0000190

>  <potential_duplicate>  (552) 
False

>  <uo_units>  (552) 
UO_0000065

>  <canonical_smiles>  (552) 
N#CC1=Cc2ccccc2CC=C1

>  <parent_molecule_chembl_id>  (552) 
CHEMBL3290055

>  <assay_type>  (552) 
B

>  <src_id>  (552) 
1

>  <ligand_efficiency>  (552) 
{u'le': u'0.57', u'bei': u'32.24', u'sei': u'22.66', u'lle': u'2.64'}

>  <standard_flag>  (552) 
True

>  <molecule_chembl_id>  (552) 
CHEMBL3290055

>  <target_organism>  (552) 
Homo sapiens

>  <standard_units>  (552) 
nM

>  <record_id>  (552) 
2117951

>  <document_chembl_id>  (552) 
CHEMBL3286144

>  <bao_format>  (552) 
BAO_0000357

>  <data_validity_description>  (552) 
None

>  <activity_id>  (552) 
14729959

>  <standard_type>  (552) 
IC50

>  <target_chembl_id>  (552) 
CHEMBL205

>  <data_validity_comment>  (552) 
None

>  <published_value>  (552) 
4.07

>  <document_year>  (552) 
2014

>  <target_pref_name>  (552) 
Carbonic anhydrase II

>  <assay_chembl_id>  (552) 
CHEMBL3293681

>  <standard_relation>  (552) 
=

>  <assay_description>  (552) 
Inhibition of human cytosolic CA-2 assessed as p-nitrophenolate formation after 3 mins using p-nitrophenylacetate as substrate by spectrophotometer

>  <published_relation>  (552) 
=

>  <standard_value>  (552) 
4070

>  <qudt_units>  (552) 
http://www.openphacts.org/units/Nanomolar

>  <target_tax_id>  (552) 
9606

>  <bao_label>  (552) 
single protein format

>  <published_units>  (552) 
uM

>  <pchembl_value>  (552) 
5.39

>  <published_type>  (552) 
IC50

>  <activity_comment>  (552) 
None

$$$$

     RDKit          

 14 15  0  0  0  0  0  0  0  0999 V2000
    0.0000    0.0000    0.0000 O   0  0  0  0  0  0  0  0  0  0  0  0
    0.0000    0.0000    0.0000 C   0  0  0  0  0  0  0  0  0  0  0  0
    0.0000    0.0000    0.0000 C   0  0  0  0  0  0  0  0  0  0  0  0
    0.0000    0.0000    0.0000 C   0  0  0  0  0  0  0  0  0  0  0  0
    0.0000    0.0000    0.0000 C   0  0  0  0  0  0  0  0  0  0  0  0
    0.0000    0.0000    0.0000 C   0  0  0  0  0  0  0  0  0  0  0  0
    0.0000    0.0000    0.0000 C   0  0  0  0  0  0  0  0  0  0  0  0
    0.0000    0.0000    0.0000 C   0  0  0  0  0  0  0  0  0  0  0  0
    0.0000    0.0000    0.0000 C   0  0  0  0  0  0  0  0  0  0  0  0
    0.0000    0.0000    0.0000 C   0  0  0  0  0  0  0  0  0  0  0  0
    0.0000    0.0000    0.0000 C   0  0  0  0  0  0  0  0  0  0  0  0
    0.0000    0.0000    0.0000 C   0  0  0  0  0  0  0  0  0  0  0  0
    0.0000    0.0000    0.0000 C   0  0  0  0  0  0  0  0  0  0  0  0
    0.0000    0.0000    0.0000 N   0  0  0  0  0  0  0  0  0  0  0  0
  1  2  2  0
  2  3  1  0
  3  4  2  0
  4  5  1  0
  5  6  2  0
  6  7  1  0
  7  8  2  0
  8  9  1  0
  9 10  2  0
 10 11  1  0
 11 12  2  0
  5 13  1  0
 13 14  3  0
 12  2  1  0
 12  7  1  0
M  END
>  <pIC50>  (553) 
5.42

>  <ChEMBL_ID>  (553) 
CHEMBL3290056

>  <document_journal>  (553) 
Bioorg. Med. Chem.

>  <bao_endpoint>  (553) 
BAO_0000190

>  <potential_duplicate>  (553) 
False

>  <uo_units>  (553) 
UO_0000065

>  <canonical_smiles>  (553) 
O=C1C=CC(=Cc2ccccc12)C#N

>  <parent_molecule_chembl_id>  (553) 
CHEMBL3290056

>  <assay_type>  (553) 
B

>  <src_id>  (553) 
1

>  <ligand_efficiency>  (553) 
{u'le': u'0.53', u'bei': u'29.9', u'sei': u'13.26', u'lle': u'3.24'}

>  <standard_flag>  (553) 
True

>  <molecule_chembl_id>  (553) 
CHEMBL3290056

>  <target_organism>  (553) 
Homo sapiens

>  <standard_units>  (553) 
nM

>  <record_id>  (553) 
2117952

>  <document_chembl_id>  (553) 
CHEMBL3286144

>  <bao_format>  (553) 
BAO_0000357

>  <data_validity_description>  (553) 
None

>  <activity_id>  (553) 
14729960

>  <standard_type>  (553) 
IC50

>  <target_chembl_id>  (553) 
CHEMBL205

>  <data_validity_comment>  (553) 
None

>  <published_value>  (553) 
3.82

>  <document_year>  (553) 
2014

>  <target_pref_name>  (553) 
Carbonic anhydrase II

>  <assay_chembl_id>  (553) 
CHEMBL3293681

>  <standard_relation>  (553) 
=

>  <assay_description>  (553) 
Inhibition of human cytosolic CA-2 assessed as p-nitrophenolate formation after 3 mins using p-nitrophenylacetate as substrate by spectrophotometer

>  <published_relation>  (553) 
=

>  <standard_value>  (553) 
3820

>  <qudt_units>  (553) 
http://www.openphacts.org/units/Nanomolar

>  <target_tax_id>  (553) 
9606

>  <bao_label>  (553) 
single protein format

>  <published_units>  (553) 
uM

>  <pchembl_value>  (553) 
5.42

>  <published_type>  (553) 
IC50

>  <activity_comment>  (553) 
None

$$$$

     RDKit          

 14 15  0  0  0  0  0  0  0  0999 V2000
    0.0000    0.0000    0.0000 O   0  0  0  0  0  0  0  0  0  0  0  0
    0.0000    0.0000    0.0000 C   0  0  0  0  0  0  0  0  0  0  0  0
    0.0000    0.0000    0.0000 C   0  0  0  0  0  0  0  0  0  0  0  0
    0.0000    0.0000    0.0000 C   0  0  0  0  0  0  0  0  0  0  0  0
    0.0000    0.0000    0.0000 C   0  0  0  0  0  0  0  0  0  0  0  0
    0.0000    0.0000    0.0000 C   0  0  0  0  0  0  0  0  0  0  0  0
    0.0000    0.0000    0.0000 C   0  0  0  0  0  0  0  0  0  0  0  0
    0.0000    0.0000    0.0000 C   0  0  0  0  0  0  0  0  0  0  0  0
    0.0000    0.0000    0.0000 C   0  0  0  0  0  0  0  0  0  0  0  0
    0.0000    0.0000    0.0000 C   0  0  0  0  0  0  0  0  0  0  0  0
    0.0000    0.0000    0.0000 C   0  0  0  0  0  0  0  0  0  0  0  0
    0.0000    0.0000    0.0000 C   0  0  0  0  0  0  0  0  0  0  0  0
    0.0000    0.0000    0.0000 C   0  0  0  0  0  0  0  0  0  0  0  0
    0.0000    0.0000    0.0000 N   0  0  0  0  0  0  0  0  0  0  0  0
  1  2  2  0
  2  3  1  0
  3  4  2  0
  4  5  1  0
  5  6  2  0
  6  7  1  0
  7  8  2  0
  8  9  1  0
  9 10  2  0
 10 11  1  0
 11 12  2  0
  3 13  1  0
 13 14  3  0
 12  2  1  0
 12  7  1  0
M  END
>  <pIC50>  (554) 
5.44

>  <ChEMBL_ID>  (554) 
CHEMBL3290057

>  <document_journal>  (554) 
Bioorg. Med. Chem.

>  <bao_endpoint>  (554) 
BAO_0000190

>  <potential_duplicate>  (554) 
False

>  <uo_units>  (554) 
UO_0000065

>  <canonical_smiles>  (554) 
O=C1C(=CC=Cc2ccccc12)C#N

>  <parent_molecule_chembl_id>  (554) 
CHEMBL3290057

>  <assay_type>  (554) 
B

>  <src_id>  (554) 
1

>  <ligand_efficiency>  (554) 
{u'le': u'0.53', u'bei': u'30.02', u'sei': u'13.31', u'lle': u'3.26'}

>  <standard_flag>  (554) 
True

>  <molecule_chembl_id>  (554) 
CHEMBL3290057

>  <target_organism>  (554) 
Homo sapiens

>  <standard_units>  (554) 
nM

>  <record_id>  (554) 
2117953

>  <document_chembl_id>  (554) 
CHEMBL3286144

>  <bao_format>  (554) 
BAO_0000357

>  <data_validity_description>  (554) 
None

>  <activity_id>  (554) 
14729961

>  <standard_type>  (554) 
IC50

>  <target_chembl_id>  (554) 
CHEMBL205

>  <data_validity_comment>  (554) 
None

>  <published_value>  (554) 
3.64

>  <document_year>  (554) 
2014

>  <target_pref_name>  (554) 
Carbonic anhydrase II

>  <assay_chembl_id>  (554) 
CHEMBL3293681

>  <standard_relation>  (554) 
=

>  <assay_description>  (554) 
Inhibition of human cytosolic CA-2 assessed as p-nitrophenolate formation after 3 mins using p-nitrophenylacetate as substrate by spectrophotometer

>  <published_relation>  (554) 
=

>  <standard_value>  (554) 
3640

>  <qudt_units>  (554) 
http://www.openphacts.org/units/Nanomolar

>  <target_tax_id>  (554) 
9606

>  <bao_label>  (554) 
single protein format

>  <published_units>  (554) 
uM

>  <pchembl_value>  (554) 
5.44

>  <published_type>  (554) 
IC50

>  <activity_comment>  (554) 
None

$$$$

     RDKit          

 14 15  0  0  0  0  0  0  0  0999 V2000
    0.0000    0.0000    0.0000 O   0  0  0  0  0  0  0  0  0  0  0  0
    0.0000    0.0000    0.0000 C   0  0  0  0  0  0  0  0  0  0  0  0
    0.0000    0.0000    0.0000 C   0  0  0  0  0  0  0  0  0  0  0  0
    0.0000    0.0000    0.0000 C   0  0  0  0  0  0  0  0  0  0  0  0
    0.0000    0.0000    0.0000 C   0  0  0  0  0  0  0  0  0  0  0  0
    0.0000    0.0000    0.0000 C   0  0  0  0  0  0  0  0  0  0  0  0
    0.0000    0.0000    0.0000 C   0  0  0  0  0  0  0  0  0  0  0  0
    0.0000    0.0000    0.0000 C   0  0  0  0  0  0  0  0  0  0  0  0
    0.0000    0.0000    0.0000 C   0  0  0  0  0  0  0  0  0  0  0  0
    0.0000    0.0000    0.0000 C   0  0  0  0  0  0  0  0  0  0  0  0
    0.0000    0.0000    0.0000 C   0  0  0  0  0  0  0  0  0  0  0  0
    0.0000    0.0000    0.0000 C   0  0  0  0  0  0  0  0  0  0  0  0
    0.0000    0.0000    0.0000 C   0  0  0  0  0  0  0  0  0  0  0  0
    0.0000    0.0000    0.0000 N   0  0  0  0  0  0  0  0  0  0  0  0
  1  2  2  0
  2  3  1  0
  3  4  2  0
  4  5  1  0
  5  6  2  0
  6  7  1  0
  7  8  2  0
  8  9  1  0
  9 10  2  0
 10 11  1  0
 11 12  2  0
 12 13  1  0
 13 14  3  0
 12  2  1  0
 10  5  1  0
M  END
>  <pIC50>  (555) 
5.49

>  <ChEMBL_ID>  (555) 
CHEMBL3290058

>  <document_journal>  (555) 
Bioorg. Med. Chem.

>  <bao_endpoint>  (555) 
BAO_0000190

>  <potential_duplicate>  (555) 
False

>  <uo_units>  (555) 
UO_0000065

>  <canonical_smiles>  (555) 
O=C1C=Cc2ccccc2C=C1C#N

>  <parent_molecule_chembl_id>  (555) 
CHEMBL3290058

>  <assay_type>  (555) 
B

>  <src_id>  (555) 
1

>  <ligand_efficiency>  (555) 
{u'le': u'0.54', u'bei': u'30.31', u'sei': u'13.44', u'lle': u'3.32'}

>  <standard_flag>  (555) 
True

>  <molecule_chembl_id>  (555) 
CHEMBL3290058

>  <target_organism>  (555) 
Homo sapiens

>  <standard_units>  (555) 
nM

>  <record_id>  (555) 
2117954

>  <document_chembl_id>  (555) 
CHEMBL3286144

>  <bao_format>  (555) 
BAO_0000357

>  <data_validity_description>  (555) 
None

>  <activity_id>  (555) 
14729962

>  <standard_type>  (555) 
IC50

>  <target_chembl_id>  (555) 
CHEMBL205

>  <data_validity_comment>  (555) 
None

>  <published_value>  (555) 
3.22

>  <document_year>  (555) 
2014

>  <target_pref_name>  (555) 
Carbonic anhydrase II

>  <assay_chembl_id>  (555) 
CHEMBL3293681

>  <standard_relation>  (555) 
=

>  <assay_description>  (555) 
Inhibition of human cytosolic CA-2 assessed as p-nitrophenolate formation after 3 mins using p-nitrophenylacetate as substrate by spectrophotometer

>  <published_relation>  (555) 
=

>  <standard_value>  (555) 
3220

>  <qudt_units>  (555) 
http://www.openphacts.org/units/Nanomolar

>  <target_tax_id>  (555) 
9606

>  <bao_label>  (555) 
single protein format

>  <published_units>  (555) 
uM

>  <pchembl_value>  (555) 
5.49

>  <published_type>  (555) 
IC50

>  <activity_comment>  (555) 
None

$$$$

     RDKit          

 14 15  0  0  0  0  0  0  0  0999 V2000
    0.0000    0.0000    0.0000 O   0  0  0  0  0  0  0  0  0  0  0  0
    0.0000    0.0000    0.0000 C   0  0  0  0  0  0  0  0  0  0  0  0
    0.0000    0.0000    0.0000 C   0  0  0  0  0  0  0  0  0  0  0  0
    0.0000    0.0000    0.0000 C   0  0  0  0  0  0  0  0  0  0  0  0
    0.0000    0.0000    0.0000 C   0  0  0  0  0  0  0  0  0  0  0  0
    0.0000    0.0000    0.0000 C   0  0  0  0  0  0  0  0  0  0  0  0
    0.0000    0.0000    0.0000 C   0  0  0  0  0  0  0  0  0  0  0  0
    0.0000    0.0000    0.0000 C   0  0  0  0  0  0  0  0  0  0  0  0
    0.0000    0.0000    0.0000 C   0  0  0  0  0  0  0  0  0  0  0  0
    0.0000    0.0000    0.0000 C   0  0  0  0  0  0  0  0  0  0  0  0
    0.0000    0.0000    0.0000 C   0  0  0  0  0  0  0  0  0  0  0  0
    0.0000    0.0000    0.0000 C   0  0  0  0  0  0  0  0  0  0  0  0
    0.0000    0.0000    0.0000 C   0  0  0  0  0  0  0  0  0  0  0  0
    0.0000    0.0000    0.0000 N   0  0  0  0  0  0  0  0  0  0  0  0
  1  2  2  0
  2  3  1  0
  3  4  2  0
  4  5  1  0
  5  6  2  0
  6  7  1  0
  7  8  2  0
  8  9  1  0
  9 10  2  0
 10 11  1  0
 11 12  2  0
  4 13  1  0
 13 14  3  0
 12  2  1  0
 12  7  1  0
M  END
>  <pIC50>  (556) 
5.43

>  <ChEMBL_ID>  (556) 
CHEMBL3290059

>  <document_journal>  (556) 
Bioorg. Med. Chem.

>  <bao_endpoint>  (556) 
BAO_0000190

>  <potential_duplicate>  (556) 
False

>  <uo_units>  (556) 
UO_0000065

>  <canonical_smiles>  (556) 
O=C1C=C(C=Cc2ccccc12)C#N

>  <parent_molecule_chembl_id>  (556) 
CHEMBL3290059

>  <assay_type>  (556) 
B

>  <src_id>  (556) 
1

>  <ligand_efficiency>  (556) 
{u'le': u'0.53', u'bei': u'29.95', u'sei': u'13.28', u'lle': u'3.25'}

>  <standard_flag>  (556) 
True

>  <molecule_chembl_id>  (556) 
CHEMBL3290059

>  <target_organism>  (556) 
Homo sapiens

>  <standard_units>  (556) 
nM

>  <record_id>  (556) 
2117955

>  <document_chembl_id>  (556) 
CHEMBL3286144

>  <bao_format>  (556) 
BAO_0000357

>  <data_validity_description>  (556) 
None

>  <activity_id>  (556) 
14729963

>  <standard_type>  (556) 
IC50

>  <target_chembl_id>  (556) 
CHEMBL205

>  <data_validity_comment>  (556) 
None

>  <published_value>  (556) 
3.74

>  <document_year>  (556) 
2014

>  <target_pref_name>  (556) 
Carbonic anhydrase II

>  <assay_chembl_id>  (556) 
CHEMBL3293681

>  <standard_relation>  (556) 
=

>  <assay_description>  (556) 
Inhibition of human cytosolic CA-2 assessed as p-nitrophenolate formation after 3 mins using p-nitrophenylacetate as substrate by spectrophotometer

>  <published_relation>  (556) 
=

>  <standard_value>  (556) 
3740

>  <qudt_units>  (556) 
http://www.openphacts.org/units/Nanomolar

>  <target_tax_id>  (556) 
9606

>  <bao_label>  (556) 
single protein format

>  <published_units>  (556) 
uM

>  <pchembl_value>  (556) 
5.43

>  <published_type>  (556) 
IC50

>  <activity_comment>  (556) 
None

$$$$

     RDKit          

 19 20  0  0  0  0  0  0  0  0999 V2000
    0.0000    0.0000    0.0000 O   0  0  0  0  0  0  0  0  0  0  0  0
    0.0000    0.0000    0.0000 N   0  0  0  0  0  0  0  0  0  0  0  0
    0.0000    0.0000    0.0000 O   0  0  0  0  0  0  0  0  0  0  0  0
    0.0000    0.0000    0.0000 C   0  0  0  0  0  0  0  0  0  0  0  0
    0.0000    0.0000    0.0000 C   0  0  0  0  0  0  0  0  0  0  0  0
    0.0000    0.0000    0.0000 C   0  0  0  0  0  0  0  0  0  0  0  0
    0.0000    0.0000    0.0000 C   0  0  0  0  0  0  0  0  0  0  0  0
    0.0000    0.0000    0.0000 C   0  0  0  0  0  0  0  0  0  0  0  0
    0.0000    0.0000    0.0000 C   0  0  0  0  0  0  0  0  0  0  0  0
    0.0000    0.0000    0.0000 S   0  0  0  0  0  0  0  0  0  0  0  0
    0.0000    0.0000    0.0000 O   0  0  0  0  0  0  0  0  0  0  0  0
    0.0000    0.0000    0.0000 O   0  0  0  0  0  0  0  0  0  0  0  0
    0.0000    0.0000    0.0000 N   0  0  0  0  0  0  0  0  0  0  0  0
    0.0000    0.0000    0.0000 C   0  0  0  0  0  0  0  0  0  0  0  0
    0.0000    0.0000    0.0000 C   0  0  0  0  0  0  0  0  0  0  0  0
    0.0000    0.0000    0.0000 C   0  0  0  0  0  0  0  0  0  0  0  0
    0.0000    0.0000    0.0000 C   0  0  0  0  0  0  0  0  0  0  0  0
    0.0000    0.0000    0.0000 C   0  0  0  0  0  0  0  0  0  0  0  0
    0.0000    0.0000    0.0000 C   0  0  0  0  0  0  0  0  0  0  0  0
  1  2  1  0
  2  3  2  0
  2  4  1  0
  4  5  2  0
  5  6  1  0
  6  7  2  0
  7  8  1  0
  8  9  2  0
  7 10  1  0
 10 11  2  0
 10 12  2  0
 10 13  1  0
 13 14  1  0
 14 15  2  0
 15 16  1  0
 16 17  2  0
 17 18  1  0
 18 19  2  0
  9  4  1  0
 19 14  1  0
M  CHG  2   1  -1   2   1
M  END
>  <pIC50>  (557) 
5.14

>  <ChEMBL_ID>  (557) 
CHEMBL362436

>  <document_journal>  (557) 
Bioorg. Med. Chem. Lett.

>  <bao_endpoint>  (557) 
BAO_0000190

>  <potential_duplicate>  (557) 
False

>  <uo_units>  (557) 
UO_0000065

>  <canonical_smiles>  (557) 
[O-][N+](=O)c1ccc(cc1)S(=O)(=O)Nc2ccccc2

>  <parent_molecule_chembl_id>  (557) 
CHEMBL362436

>  <assay_type>  (557) 
B

>  <src_id>  (557) 
1

>  <ligand_efficiency>  (557) 
{u'le': u'0.37', u'bei': u'18.45', u'sei': u'5.12', u'lle': u'2.93'}

>  <standard_flag>  (557) 
True

>  <molecule_chembl_id>  (557) 
CHEMBL362436

>  <target_organism>  (557) 
Homo sapiens

>  <standard_units>  (557) 
nM

>  <record_id>  (557) 
2265365

>  <document_chembl_id>  (557) 
CHEMBL3352662

>  <bao_format>  (557) 
BAO_0000357

>  <data_validity_description>  (557) 
None

>  <activity_id>  (557) 
15006338

>  <standard_type>  (557) 
IC50

>  <target_chembl_id>  (557) 
CHEMBL205

>  <data_validity_comment>  (557) 
None

>  <published_value>  (557) 
7.321

>  <document_year>  (557) 
2014

>  <target_pref_name>  (557) 
Carbonic anhydrase II

>  <assay_chembl_id>  (557) 
CHEMBL3373762

>  <standard_relation>  (557) 
=

>  <assay_description>  (557) 
Inhibition of CA-2 (unknown origin) after 15 mins by CO2 hydration assay

>  <published_relation>  (557) 
=

>  <standard_value>  (557) 
7321

>  <qudt_units>  (557) 
http://www.openphacts.org/units/Nanomolar

>  <target_tax_id>  (557) 
9606

>  <bao_label>  (557) 
single protein format

>  <published_units>  (557) 
uM

>  <pchembl_value>  (557) 
5.14

>  <published_type>  (557) 
IC50

>  <activity_comment>  (557) 
None

$$$$

     RDKit          

 23 25  0  0  0  0  0  0  0  0999 V2000
    0.0000    0.0000    0.0000 C   0  0  0  0  0  0  0  0  0  0  0  0
    0.0000    0.0000    0.0000 C   0  0  0  0  0  0  0  0  0  0  0  0
    0.0000    0.0000    0.0000 C   0  0  0  0  0  0  0  0  0  0  0  0
    0.0000    0.0000    0.0000 C   0  0  0  0  0  0  0  0  0  0  0  0
    0.0000    0.0000    0.0000 C   0  0  0  0  0  0  0  0  0  0  0  0
    0.0000    0.0000    0.0000 C   0  0  0  0  0  0  0  0  0  0  0  0
    0.0000    0.0000    0.0000 C   0  0  0  0  0  0  0  0  0  0  0  0
    0.0000    0.0000    0.0000 S   0  0  0  0  0  0  0  0  0  0  0  0
    0.0000    0.0000    0.0000 O   0  0  0  0  0  0  0  0  0  0  0  0
    0.0000    0.0000    0.0000 O   0  0  0  0  0  0  0  0  0  0  0  0
    0.0000    0.0000    0.0000 N   0  0  0  0  0  0  0  0  0  0  0  0
    0.0000    0.0000    0.0000 C   0  0  0  0  0  0  0  0  0  0  0  0
    0.0000    0.0000    0.0000 C   0  0  0  0  0  0  0  0  0  0  0  0
    0.0000    0.0000    0.0000 C   0  0  0  0  0  0  0  0  0  0  0  0
    0.0000    0.0000    0.0000 C   0  0  0  0  0  0  0  0  0  0  0  0
    0.0000    0.0000    0.0000 C   0  0  0  0  0  0  0  0  0  0  0  0
    0.0000    0.0000    0.0000 C   0  0  0  0  0  0  0  0  0  0  0  0
    0.0000    0.0000    0.0000 C   0  0  0  0  0  0  0  0  0  0  0  0
    0.0000    0.0000    0.0000 C   0  0  0  0  0  0  0  0  0  0  0  0
    0.0000    0.0000    0.0000 C   0  0  0  0  0  0  0  0  0  0  0  0
    0.0000    0.0000    0.0000 C   0  0  0  0  0  0  0  0  0  0  0  0
    0.0000    0.0000    0.0000 C   0  0  0  0  0  0  0  0  0  0  0  0
    0.0000    0.0000    0.0000 C   0  0  0  0  0  0  0  0  0  0  0  0
  1  2  1  0
  2  3  2  0
  3  4  1  0
  4  5  2  0
  5  6  1  0
  6  7  2  0
  5  8  1  0
  8  9  2  0
  8 10  2  0
  8 11  1  0
 11 12  1  0
 12 13  2  0
 13 14  1  0
 14 15  2  0
 15 16  1  0
 16 17  2  0
 17 18  1  0
 18 19  2  0
 19 20  1  0
 20 21  2  0
 21 22  1  0
 22 23  2  0
  7  2  1  0
 17 12  1  0
 23 18  1  0
M  END
>  <pIC50>  (558) 
5.29

>  <ChEMBL_ID>  (558) 
CHEMBL1382128

>  <document_journal>  (558) 
Bioorg. Med. Chem. Lett.

>  <bao_endpoint>  (558) 
BAO_0000190

>  <potential_duplicate>  (558) 
False

>  <uo_units>  (558) 
UO_0000065

>  <canonical_smiles>  (558) 
Cc1ccc(cc1)S(=O)(=O)Nc2ccccc2c3ccccc3

>  <parent_molecule_chembl_id>  (558) 
CHEMBL1382128

>  <assay_type>  (558) 
B

>  <src_id>  (558) 
1

>  <ligand_efficiency>  (558) 
{u'le': u'0.31', u'bei': u'16.36', u'sei': u'9.7', u'lle': u'0.97'}

>  <standard_flag>  (558) 
True

>  <molecule_chembl_id>  (558) 
CHEMBL1382128

>  <target_organism>  (558) 
Homo sapiens

>  <standard_units>  (558) 
nM

>  <record_id>  (558) 
2265364

>  <document_chembl_id>  (558) 
CHEMBL3352662

>  <bao_format>  (558) 
BAO_0000357

>  <data_validity_description>  (558) 
None

>  <activity_id>  (558) 
15010422

>  <standard_type>  (558) 
IC50

>  <target_chembl_id>  (558) 
CHEMBL205

>  <data_validity_comment>  (558) 
None

>  <published_value>  (558) 
5.1

>  <document_year>  (558) 
2014

>  <target_pref_name>  (558) 
Carbonic anhydrase II

>  <assay_chembl_id>  (558) 
CHEMBL3373762

>  <standard_relation>  (558) 
=

>  <assay_description>  (558) 
Inhibition of CA-2 (unknown origin) after 15 mins by CO2 hydration assay

>  <published_relation>  (558) 
=

>  <standard_value>  (558) 
5100

>  <qudt_units>  (558) 
http://www.openphacts.org/units/Nanomolar

>  <target_tax_id>  (558) 
9606

>  <bao_label>  (558) 
single protein format

>  <published_units>  (558) 
uM

>  <pchembl_value>  (558) 
5.29

>  <published_type>  (558) 
IC50

>  <activity_comment>  (558) 
None

$$$$

     RDKit          

 17 17  0  0  0  0  0  0  0  0999 V2000
    0.0000    0.0000    0.0000 C   0  0  0  0  0  0  0  0  0  0  0  0
    0.0000    0.0000    0.0000 N   0  0  0  0  0  0  0  0  0  0  0  0
    0.0000    0.0000    0.0000 C   0  0  0  0  0  0  0  0  0  0  0  0
    0.0000    0.0000    0.0000 C   0  0  0  0  0  0  0  0  0  0  0  0
    0.0000    0.0000    0.0000 C   0  0  0  0  0  0  0  0  0  0  0  0
    0.0000    0.0000    0.0000 C   0  0  0  0  0  0  0  0  0  0  0  0
    0.0000    0.0000    0.0000 N   0  0  0  0  0  0  0  0  0  0  0  0
    0.0000    0.0000    0.0000 S   0  0  0  0  0  0  0  0  0  0  0  0
    0.0000    0.0000    0.0000 O   0  0  0  0  0  0  0  0  0  0  0  0
    0.0000    0.0000    0.0000 O   0  0  0  0  0  0  0  0  0  0  0  0
    0.0000    0.0000    0.0000 C   0  0  0  0  0  0  0  0  0  0  0  0
    0.0000    0.0000    0.0000 C   0  0  0  0  0  0  0  0  0  0  0  0
    0.0000    0.0000    0.0000 C   0  0  0  0  0  0  0  0  0  0  0  0
    0.0000    0.0000    0.0000 C   0  0  0  0  0  0  0  0  0  0  0  0
    0.0000    0.0000    0.0000 C   0  0  0  0  0  0  0  0  0  0  0  0
    0.0000    0.0000    0.0000 C   0  0  0  0  0  0  0  0  0  0  0  0
    0.0000    0.0000    0.0000 C   0  0  0  0  0  0  0  0  0  0  0  0
  1  2  1  0
  2  3  1  0
  2  4  1  0
  4  5  1  0
  5  6  1  0
  6  7  1  0
  7  8  1  0
  8  9  2  0
  8 10  2  0
  8 11  1  0
 11 12  2  0
 12 13  1  0
 13 14  2  0
 14 15  1  0
 14 16  1  0
 16 17  2  0
 17 11  1  0
M  END
>  <pIC50>  (559) 
5.18

>  <ChEMBL_ID>  (559) 
CHEMBL1621411

>  <document_journal>  (559) 
Bioorg. Med. Chem. Lett.

>  <bao_endpoint>  (559) 
BAO_0000190

>  <potential_duplicate>  (559) 
False

>  <uo_units>  (559) 
UO_0000065

>  <canonical_smiles>  (559) 
CN(C)CCCNS(=O)(=O)c1ccc(C)cc1

>  <parent_molecule_chembl_id>  (559) 
CHEMBL1621411

>  <assay_type>  (559) 
B

>  <src_id>  (559) 
1

>  <ligand_efficiency>  (559) 
{u'le': u'0.42', u'bei': u'20.19', u'sei': u'8.96', u'lle': u'3.75'}

>  <standard_flag>  (559) 
True

>  <molecule_chembl_id>  (559) 
CHEMBL1621411

>  <target_organism>  (559) 
Homo sapiens

>  <standard_units>  (559) 
nM

>  <record_id>  (559) 
2265363

>  <document_chembl_id>  (559) 
CHEMBL3352662

>  <bao_format>  (559) 
BAO_0000357

>  <data_validity_description>  (559) 
None

>  <activity_id>  (559) 
15010423

>  <standard_type>  (559) 
IC50

>  <target_chembl_id>  (559) 
CHEMBL205

>  <data_validity_comment>  (559) 
None

>  <published_value>  (559) 
6.672

>  <document_year>  (559) 
2014

>  <target_pref_name>  (559) 
Carbonic anhydrase II

>  <assay_chembl_id>  (559) 
CHEMBL3373762

>  <standard_relation>  (559) 
=

>  <assay_description>  (559) 
Inhibition of CA-2 (unknown origin) after 15 mins by CO2 hydration assay

>  <published_relation>  (559) 
=

>  <standard_value>  (559) 
6672

>  <qudt_units>  (559) 
http://www.openphacts.org/units/Nanomolar

>  <target_tax_id>  (559) 
9606

>  <bao_label>  (559) 
single protein format

>  <published_units>  (559) 
uM

>  <pchembl_value>  (559) 
5.18

>  <published_type>  (559) 
IC50

>  <activity_comment>  (559) 
None

$$$$

     RDKit          

 15 15  0  0  0  0  0  0  0  0999 V2000
    0.0000    0.0000    0.0000 C   0  0  0  0  0  0  0  0  0  0  0  0
    0.0000    0.0000    0.0000 C   0  0  0  0  0  0  0  0  0  0  0  0
    0.0000    0.0000    0.0000 C   0  0  0  0  0  0  0  0  0  0  0  0
    0.0000    0.0000    0.0000 C   0  0  0  0  0  0  0  0  0  0  0  0
    0.0000    0.0000    0.0000 C   0  0  0  0  0  0  0  0  0  0  0  0
    0.0000    0.0000    0.0000 C   0  0  0  0  0  0  0  0  0  0  0  0
    0.0000    0.0000    0.0000 C   0  0  0  0  0  0  0  0  0  0  0  0
    0.0000    0.0000    0.0000 S   0  0  0  0  0  0  0  0  0  0  0  0
    0.0000    0.0000    0.0000 O   0  0  0  0  0  0  0  0  0  0  0  0
    0.0000    0.0000    0.0000 O   0  0  0  0  0  0  0  0  0  0  0  0
    0.0000    0.0000    0.0000 N   0  0  0  0  0  0  0  0  0  0  0  0
    0.0000    0.0000    0.0000 C   0  0  0  0  0  0  0  0  0  0  0  0
    0.0000    0.0000    0.0000 C   0  0  0  0  0  0  0  0  0  0  0  0
    0.0000    0.0000    0.0000 O   0  0  0  0  0  0  0  0  0  0  0  0
    0.0000    0.0000    0.0000 O   0  0  0  0  0  0  0  0  0  0  0  0
  1  2  1  0
  2  3  2  0
  3  4  1  0
  4  5  2  0
  5  6  1  0
  6  7  2  0
  5  8  1  0
  8  9  2  0
  8 10  2  0
  8 11  1  0
 11 12  1  0
 12 13  1  0
 13 14  2  0
 13 15  1  0
  7  2  1  0
M  END
>  <pIC50>  (560) 
5.44

>  <ChEMBL_ID>  (560) 
CHEMBL287486

>  <document_journal>  (560) 
Bioorg. Med. Chem. Lett.

>  <bao_endpoint>  (560) 
BAO_0000190

>  <potential_duplicate>  (560) 
False

>  <uo_units>  (560) 
UO_0000065

>  <canonical_smiles>  (560) 
Cc1ccc(cc1)S(=O)(=O)NCC(=O)O

>  <parent_molecule_chembl_id>  (560) 
CHEMBL287486

>  <assay_type>  (560) 
B

>  <src_id>  (560) 
1

>  <ligand_efficiency>  (560) 
{u'le': u'0.5', u'bei': u'23.73', u'sei': u'5.92', u'lle': u'4.73'}

>  <standard_flag>  (560) 
True

>  <molecule_chembl_id>  (560) 
CHEMBL287486

>  <target_organism>  (560) 
Homo sapiens

>  <standard_units>  (560) 
nM

>  <record_id>  (560) 
2265362

>  <document_chembl_id>  (560) 
CHEMBL3352662

>  <bao_format>  (560) 
BAO_0000357

>  <data_validity_description>  (560) 
None

>  <activity_id>  (560) 
15010424

>  <standard_type>  (560) 
IC50

>  <target_chembl_id>  (560) 
CHEMBL205

>  <data_validity_comment>  (560) 
None

>  <published_value>  (560) 
3.623

>  <document_year>  (560) 
2014

>  <target_pref_name>  (560) 
Carbonic anhydrase II

>  <assay_chembl_id>  (560) 
CHEMBL3373762

>  <standard_relation>  (560) 
=

>  <assay_description>  (560) 
Inhibition of CA-2 (unknown origin) after 15 mins by CO2 hydration assay

>  <published_relation>  (560) 
=

>  <standard_value>  (560) 
3623

>  <qudt_units>  (560) 
http://www.openphacts.org/units/Nanomolar

>  <target_tax_id>  (560) 
9606

>  <bao_label>  (560) 
single protein format

>  <published_units>  (560) 
uM

>  <pchembl_value>  (560) 
5.44

>  <published_type>  (560) 
IC50

>  <activity_comment>  (560) 
None

$$$$

     RDKit          

 16 16  0  0  0  0  0  0  0  0999 V2000
    0.0000    0.0000    0.0000 C   0  0  0  0  0  0  0  0  0  0  0  0
    0.0000    0.0000    0.0000 C   0  0  0  0  0  0  0  0  0  0  0  0
    0.0000    0.0000    0.0000 C   0  0  0  0  0  0  0  0  0  0  0  0
    0.0000    0.0000    0.0000 C   0  0  0  0  0  0  0  0  0  0  0  0
    0.0000    0.0000    0.0000 C   0  0  0  0  0  0  0  0  0  0  0  0
    0.0000    0.0000    0.0000 N   0  0  0  0  0  0  0  0  0  0  0  0
    0.0000    0.0000    0.0000 S   0  0  0  0  0  0  0  0  0  0  0  0
    0.0000    0.0000    0.0000 O   0  0  0  0  0  0  0  0  0  0  0  0
    0.0000    0.0000    0.0000 O   0  0  0  0  0  0  0  0  0  0  0  0
    0.0000    0.0000    0.0000 C   0  0  0  0  0  0  0  0  0  0  0  0
    0.0000    0.0000    0.0000 C   0  0  0  0  0  0  0  0  0  0  0  0
    0.0000    0.0000    0.0000 C   0  0  0  0  0  0  0  0  0  0  0  0
    0.0000    0.0000    0.0000 C   0  0  0  0  0  0  0  0  0  0  0  0
    0.0000    0.0000    0.0000 C   0  0  0  0  0  0  0  0  0  0  0  0
    0.0000    0.0000    0.0000 C   0  0  0  0  0  0  0  0  0  0  0  0
    0.0000    0.0000    0.0000 C   0  0  0  0  0  0  0  0  0  0  0  0
  1  2  1  0
  2  3  1  0
  3  4  1  0
  4  5  1  0
  4  6  1  0
  6  7  1  0
  7  8  2  0
  7  9  2  0
  7 10  1  0
 10 11  2  0
 11 12  1  0
 12 13  2  0
 13 14  1  0
 13 15  1  0
 15 16  2  0
 16 10  1  0
M  END
>  <pIC50>  (561) 
5.09

>  <ChEMBL_ID>  (561) 
CHEMBL3310984

>  <document_journal>  (561) 
Bioorg. Med. Chem. Lett.

>  <bao_endpoint>  (561) 
BAO_0000190

>  <potential_duplicate>  (561) 
False

>  <uo_units>  (561) 
UO_0000065

>  <canonical_smiles>  (561) 
CCCC(C)NS(=O)(=O)c1ccc(C)cc1

>  <parent_molecule_chembl_id>  (561) 
CHEMBL3310984

>  <assay_type>  (561) 
B

>  <src_id>  (561) 
1

>  <ligand_efficiency>  (561) 
{u'le': u'0.43', u'bei': u'21.1', u'sei': u'9.34', u'lle': u'2.16'}

>  <standard_flag>  (561) 
True

>  <molecule_chembl_id>  (561) 
CHEMBL3310984

>  <target_organism>  (561) 
Homo sapiens

>  <standard_units>  (561) 
nM

>  <record_id>  (561) 
2265360

>  <document_chembl_id>  (561) 
CHEMBL3352662

>  <bao_format>  (561) 
BAO_0000357

>  <data_validity_description>  (561) 
None

>  <activity_id>  (561) 
15010425

>  <standard_type>  (561) 
IC50

>  <target_chembl_id>  (561) 
CHEMBL205

>  <data_validity_comment>  (561) 
None

>  <published_value>  (561) 
8.071

>  <document_year>  (561) 
2014

>  <target_pref_name>  (561) 
Carbonic anhydrase II

>  <assay_chembl_id>  (561) 
CHEMBL3373762

>  <standard_relation>  (561) 
=

>  <assay_description>  (561) 
Inhibition of CA-2 (unknown origin) after 15 mins by CO2 hydration assay

>  <published_relation>  (561) 
=

>  <standard_value>  (561) 
8071

>  <qudt_units>  (561) 
http://www.openphacts.org/units/Nanomolar

>  <target_tax_id>  (561) 
9606

>  <bao_label>  (561) 
single protein format

>  <published_units>  (561) 
uM

>  <pchembl_value>  (561) 
5.09

>  <published_type>  (561) 
IC50

>  <activity_comment>  (561) 
None

$$$$

     RDKit          

 31 34  0  0  0  0  0  0  0  0999 V2000
    0.0000    0.0000    0.0000 C   0  0  0  0  0  0  0  0  0  0  0  0
    0.0000    0.0000    0.0000 C   0  0  0  0  0  0  0  0  0  0  0  0
    0.0000    0.0000    0.0000 C   0  0  0  0  0  0  0  0  0  0  0  0
    0.0000    0.0000    0.0000 C   0  0  0  0  0  0  0  0  0  0  0  0
    0.0000    0.0000    0.0000 C   0  0  0  0  0  0  0  0  0  0  0  0
    0.0000    0.0000    0.0000 C   0  0  0  0  0  0  0  0  0  0  0  0
    0.0000    0.0000    0.0000 C   0  0  0  0  0  0  0  0  0  0  0  0
    0.0000    0.0000    0.0000 S   0  0  0  0  0  0  0  0  0  0  0  0
    0.0000    0.0000    0.0000 O   0  0  0  0  0  0  0  0  0  0  0  0
    0.0000    0.0000    0.0000 O   0  0  0  0  0  0  0  0  0  0  0  0
    0.0000    0.0000    0.0000 N   0  0  0  0  0  0  0  0  0  0  0  0
    0.0000    0.0000    0.0000 C   0  0  0  0  0  0  0  0  0  0  0  0
    0.0000    0.0000    0.0000 O   0  0  0  0  0  0  0  0  0  0  0  0
    0.0000    0.0000    0.0000 C   0  0  0  0  0  0  0  0  0  0  0  0
    0.0000    0.0000    0.0000 C   0  0  0  0  0  0  0  0  0  0  0  0
    0.0000    0.0000    0.0000 C   0  0  0  0  0  0  0  0  0  0  0  0
    0.0000    0.0000    0.0000 C   0  0  0  0  0  0  0  0  0  0  0  0
    0.0000    0.0000    0.0000 C   0  0  0  0  0  0  0  0  0  0  0  0
    0.0000    0.0000    0.0000 C   0  0  0  0  0  0  0  0  0  0  0  0
    0.0000    0.0000    0.0000 C   0  0  0  0  0  0  0  0  0  0  0  0
    0.0000    0.0000    0.0000 C   0  0  0  0  0  0  0  0  0  0  0  0
    0.0000    0.0000    0.0000 C   0  0  0  0  0  0  0  0  0  0  0  0
    0.0000    0.0000    0.0000 O   0  0  0  0  0  0  0  0  0  0  0  0
    0.0000    0.0000    0.0000 O   0  0  0  0  0  0  0  0  0  0  0  0
    0.0000    0.0000    0.0000 C   0  0  0  0  0  0  0  0  0  0  0  0
    0.0000    0.0000    0.0000 C   0  0  0  0  0  0  0  0  0  0  0  0
    0.0000    0.0000    0.0000 C   0  0  0  0  0  0  0  0  0  0  0  0
    0.0000    0.0000    0.0000 C   0  0  0  0  0  0  0  0  0  0  0  0
    0.0000    0.0000    0.0000 C   0  0  0  0  0  0  0  0  0  0  0  0
    0.0000    0.0000    0.0000 C   0  0  0  0  0  0  0  0  0  0  0  0
    0.0000    0.0000    0.0000 C   0  0  0  0  0  0  0  0  0  0  0  0
  1  2  1  0
  2  3  2  0
  3  4  1  0
  4  5  2  0
  5  6  1  0
  6  7  2  0
  5  8  1  0
  8  9  2  0
  8 10  2  0
  8 11  1  0
 11 12  1  0
 12 13  2  0
 12 14  1  0
 14 15  1  0
 15 16  1  0
 16 17  1  0
 17 18  1  0
 18 19  1  0
 19 20  2  0
 18 21  1  0
 21 22  1  0
 22 23  2  0
 22 24  1  0
 24 25  1  0
 25 26  1  0
 26 27  2  0
 27 28  1  0
 28 29  2  0
 29 30  1  0
 30 31  2  0
  7  2  1  0
 21 14  1  0
 20 15  1  0
 31 26  1  0
M  END
>  <pIC50>  (562) 
6.92

>  <ChEMBL_ID>  (562) 
CHEMBL3402244

>  <document_journal>  (562) 
Bioorg. Med. Chem.

>  <bao_endpoint>  (562) 
BAO_0000190

>  <potential_duplicate>  (562) 
False

>  <uo_units>  (562) 
UO_0000065

>  <canonical_smiles>  (562) 
Cc1ccc(cc1)S(=O)(=O)NC(=O)C2[C@@H]3CC[C@@H](C=C3)C2C(=O)OCc4ccccc4

>  <parent_molecule_chembl_id>  (562) 
CHEMBL3402244

>  <assay_type>  (562) 
B

>  <src_id>  (562) 
1

>  <ligand_efficiency>  (562) 
{u'le': u'0.3', u'bei': u'15.73', u'sei': u'7.06', u'lle': u'3.1'}

>  <standard_flag>  (562) 
True

>  <molecule_chembl_id>  (562) 
CHEMBL3402244

>  <target_organism>  (562) 
Homo sapiens

>  <standard_units>  (562) 
nM

>  <record_id>  (562) 
2283393

>  <document_chembl_id>  (562) 
CHEMBL3400027

>  <bao_format>  (562) 
BAO_0000357

>  <data_validity_description>  (562) 
None

>  <activity_id>  (562) 
15184250

>  <standard_type>  (562) 
IC50

>  <target_chembl_id>  (562) 
CHEMBL205

>  <data_validity_comment>  (562) 
None

>  <published_value>  (562) 
121.5

>  <document_year>  (562) 
2015

>  <target_pref_name>  (562) 
Carbonic anhydrase II

>  <assay_chembl_id>  (562) 
CHEMBL3406242

>  <standard_relation>  (562) 
=

>  <assay_description>  (562) 
Inhibition of human CA-2 using p-nitro-phenylacetate as substrate after 3 mins by UV-Vis spectrophotometry

>  <published_relation>  (562) 
=

>  <standard_value>  (562) 
121.5

>  <qudt_units>  (562) 
http://www.openphacts.org/units/Nanomolar

>  <target_tax_id>  (562) 
9606

>  <bao_label>  (562) 
single protein format

>  <published_units>  (562) 
nM

>  <pchembl_value>  (562) 
6.92

>  <published_type>  (562) 
IC50

>  <activity_comment>  (562) 
None

$$$$

     RDKit          

 30 33  0  0  0  0  0  0  0  0999 V2000
    0.0000    0.0000    0.0000 C   0  0  0  0  0  0  0  0  0  0  0  0
    0.0000    0.0000    0.0000 C   0  0  0  0  0  0  0  0  0  0  0  0
    0.0000    0.0000    0.0000 C   0  0  0  0  0  0  0  0  0  0  0  0
    0.0000    0.0000    0.0000 C   0  0  0  0  0  0  0  0  0  0  0  0
    0.0000    0.0000    0.0000 C   0  0  0  0  0  0  0  0  0  0  0  0
    0.0000    0.0000    0.0000 C   0  0  0  0  0  0  0  0  0  0  0  0
    0.0000    0.0000    0.0000 C   0  0  0  0  0  0  0  0  0  0  0  0
    0.0000    0.0000    0.0000 S   0  0  0  0  0  0  0  0  0  0  0  0
    0.0000    0.0000    0.0000 O   0  0  0  0  0  0  0  0  0  0  0  0
    0.0000    0.0000    0.0000 O   0  0  0  0  0  0  0  0  0  0  0  0
    0.0000    0.0000    0.0000 N   0  0  0  0  0  0  0  0  0  0  0  0
    0.0000    0.0000    0.0000 C   0  0  0  0  0  0  0  0  0  0  0  0
    0.0000    0.0000    0.0000 O   0  0  0  0  0  0  0  0  0  0  0  0
    0.0000    0.0000    0.0000 C   0  0  0  0  0  0  0  0  0  0  0  0
    0.0000    0.0000    0.0000 C   0  0  0  0  0  0  0  0  0  0  0  0
    0.0000    0.0000    0.0000 C   0  0  0  0  0  0  0  0  0  0  0  0
    0.0000    0.0000    0.0000 C   0  0  0  0  0  0  0  0  0  0  0  0
    0.0000    0.0000    0.0000 C   0  0  0  0  0  0  0  0  0  0  0  0
    0.0000    0.0000    0.0000 C   0  0  0  0  0  0  0  0  0  0  0  0
    0.0000    0.0000    0.0000 C   0  0  0  0  0  0  0  0  0  0  0  0
    0.0000    0.0000    0.0000 C   0  0  0  0  0  0  0  0  0  0  0  0
    0.0000    0.0000    0.0000 O   0  0  0  0  0  0  0  0  0  0  0  0
    0.0000    0.0000    0.0000 O   0  0  0  0  0  0  0  0  0  0  0  0
    0.0000    0.0000    0.0000 C   0  0  0  0  0  0  0  0  0  0  0  0
    0.0000    0.0000    0.0000 C   0  0  0  0  0  0  0  0  0  0  0  0
    0.0000    0.0000    0.0000 C   0  0  0  0  0  0  0  0  0  0  0  0
    0.0000    0.0000    0.0000 C   0  0  0  0  0  0  0  0  0  0  0  0
    0.0000    0.0000    0.0000 C   0  0  0  0  0  0  0  0  0  0  0  0
    0.0000    0.0000    0.0000 C   0  0  0  0  0  0  0  0  0  0  0  0
    0.0000    0.0000    0.0000 C   0  0  0  0  0  0  0  0  0  0  0  0
  1  2  1  0
  2  3  2  0
  3  4  1  0
  4  5  2  0
  5  6  1  0
  6  7  2  0
  5  8  1  0
  8  9  2  0
  8 10  2  0
  8 11  1  0
 11 12  1  0
 12 13  2  0
 12 14  1  0
 14 15  1  0
 15 16  1  0
 16 17  1  0
 17 18  1  0
 18 19  2  0
 17 20  1  0
 20 21  1  0
 21 22  2  0
 21 23  1  0
 23 24  1  0
 24 25  1  0
 25 26  2  0
 26 27  1  0
 27 28  2  0
 28 29  1  0
 29 30  2  0
  7  2  1  0
 20 14  1  0
 19 15  1  0
 30 25  1  0
M  END
>  <pIC50>  (563) 
6.96

>  <ChEMBL_ID>  (563) 
CHEMBL3402245

>  <document_journal>  (563) 
Bioorg. Med. Chem.

>  <bao_endpoint>  (563) 
BAO_0000190

>  <potential_duplicate>  (563) 
False

>  <uo_units>  (563) 
UO_0000065

>  <canonical_smiles>  (563) 
Cc1ccc(cc1)S(=O)(=O)NC(=O)C2[C@@H]3C[C@@H](C=C3)[C@H]2C(=O)OCc4ccccc4

>  <parent_molecule_chembl_id>  (563) 
CHEMBL3402245

>  <assay_type>  (563) 
B

>  <src_id>  (563) 
1

>  <ligand_efficiency>  (563) 
{u'le': u'0.32', u'bei': u'16.35', u'sei': u'7.11', u'lle': u'3.6'}

>  <standard_flag>  (563) 
True

>  <molecule_chembl_id>  (563) 
CHEMBL3402245

>  <target_organism>  (563) 
Homo sapiens

>  <standard_units>  (563) 
nM

>  <record_id>  (563) 
2283394

>  <document_chembl_id>  (563) 
CHEMBL3400027

>  <bao_format>  (563) 
BAO_0000357

>  <data_validity_description>  (563) 
None

>  <activity_id>  (563) 
15184251

>  <standard_type>  (563) 
IC50

>  <target_chembl_id>  (563) 
CHEMBL205

>  <data_validity_comment>  (563) 
None

>  <published_value>  (563) 
110.2

>  <document_year>  (563) 
2015

>  <target_pref_name>  (563) 
Carbonic anhydrase II

>  <assay_chembl_id>  (563) 
CHEMBL3406242

>  <standard_relation>  (563) 
=

>  <assay_description>  (563) 
Inhibition of human CA-2 using p-nitro-phenylacetate as substrate after 3 mins by UV-Vis spectrophotometry

>  <published_relation>  (563) 
=

>  <standard_value>  (563) 
110.2

>  <qudt_units>  (563) 
http://www.openphacts.org/units/Nanomolar

>  <target_tax_id>  (563) 
9606

>  <bao_label>  (563) 
single protein format

>  <published_units>  (563) 
nM

>  <pchembl_value>  (563) 
6.96

>  <published_type>  (563) 
IC50

>  <activity_comment>  (563) 
None

$$$$

     RDKit          

 29 31  0  0  0  0  0  0  0  0999 V2000
    0.0000    0.0000    0.0000 C   0  0  0  0  0  0  0  0  0  0  0  0
    0.0000    0.0000    0.0000 C   0  0  0  0  0  0  0  0  0  0  0  0
    0.0000    0.0000    0.0000 C   0  0  0  0  0  0  0  0  0  0  0  0
    0.0000    0.0000    0.0000 C   0  0  0  0  0  0  0  0  0  0  0  0
    0.0000    0.0000    0.0000 C   0  0  0  0  0  0  0  0  0  0  0  0
    0.0000    0.0000    0.0000 C   0  0  0  0  0  0  0  0  0  0  0  0
    0.0000    0.0000    0.0000 C   0  0  0  0  0  0  0  0  0  0  0  0
    0.0000    0.0000    0.0000 S   0  0  0  0  0  0  0  0  0  0  0  0
    0.0000    0.0000    0.0000 O   0  0  0  0  0  0  0  0  0  0  0  0
    0.0000    0.0000    0.0000 O   0  0  0  0  0  0  0  0  0  0  0  0
    0.0000    0.0000    0.0000 N   0  0  0  0  0  0  0  0  0  0  0  0
    0.0000    0.0000    0.0000 C   0  0  0  0  0  0  0  0  0  0  0  0
    0.0000    0.0000    0.0000 O   0  0  0  0  0  0  0  0  0  0  0  0
    0.0000    0.0000    0.0000 C   0  0  0  0  0  0  0  0  0  0  0  0
    0.0000    0.0000    0.0000 C   0  0  0  0  0  0  0  0  0  0  0  0
    0.0000    0.0000    0.0000 C   0  0  0  0  0  0  0  0  0  0  0  0
    0.0000    0.0000    0.0000 C   0  0  0  0  0  0  0  0  0  0  0  0
    0.0000    0.0000    0.0000 C   0  0  0  0  0  0  0  0  0  0  0  0
    0.0000    0.0000    0.0000 C   0  0  0  0  0  0  0  0  0  0  0  0
    0.0000    0.0000    0.0000 C   0  0  0  0  0  0  0  0  0  0  0  0
    0.0000    0.0000    0.0000 O   0  0  0  0  0  0  0  0  0  0  0  0
    0.0000    0.0000    0.0000 O   0  0  0  0  0  0  0  0  0  0  0  0
    0.0000    0.0000    0.0000 C   0  0  0  0  0  0  0  0  0  0  0  0
    0.0000    0.0000    0.0000 C   0  0  0  0  0  0  0  0  0  0  0  0
    0.0000    0.0000    0.0000 C   0  0  0  0  0  0  0  0  0  0  0  0
    0.0000    0.0000    0.0000 C   0  0  0  0  0  0  0  0  0  0  0  0
    0.0000    0.0000    0.0000 C   0  0  0  0  0  0  0  0  0  0  0  0
    0.0000    0.0000    0.0000 C   0  0  0  0  0  0  0  0  0  0  0  0
    0.0000    0.0000    0.0000 C   0  0  0  0  0  0  0  0  0  0  0  0
  1  2  1  0
  2  3  2  0
  3  4  1  0
  4  5  2  0
  5  6  1  0
  6  7  2  0
  5  8  1  0
  8  9  2  0
  8 10  2  0
  8 11  1  0
 11 12  1  0
 12 13  2  0
 12 14  1  0
 14 15  1  0
 15 16  1  0
 16 17  2  0
 17 18  1  0
 18 19  1  0
 19 20  1  0
 20 21  2  0
 20 22  1  0
 22 23  1  0
 23 24  1  0
 24 25  2  0
 25 26  1  0
 26 27  2  0
 27 28  1  0
 28 29  2  0
  7  2  1  0
 19 14  1  0
 29 24  1  0
M  END
>  <pIC50>  (564) 
6.96

>  <ChEMBL_ID>  (564) 
CHEMBL3402246

>  <document_journal>  (564) 
Bioorg. Med. Chem.

>  <bao_endpoint>  (564) 
BAO_0000190

>  <potential_duplicate>  (564) 
False

>  <uo_units>  (564) 
UO_0000065

>  <canonical_smiles>  (564) 
Cc1ccc(cc1)S(=O)(=O)NC(=O)C2CC=CCC2C(=O)OCc3ccccc3

>  <parent_molecule_chembl_id>  (564) 
CHEMBL3402246

>  <assay_type>  (564) 
B

>  <src_id>  (564) 
1

>  <ligand_efficiency>  (564) 
{u'le': u'0.33', u'bei': u'16.82', u'sei': u'7.1', u'lle': u'3.27'}

>  <standard_flag>  (564) 
True

>  <molecule_chembl_id>  (564) 
CHEMBL3402246

>  <target_organism>  (564) 
Homo sapiens

>  <standard_units>  (564) 
nM

>  <record_id>  (564) 
2283395

>  <document_chembl_id>  (564) 
CHEMBL3400027

>  <bao_format>  (564) 
BAO_0000357

>  <data_validity_description>  (564) 
None

>  <activity_id>  (564) 
15184252

>  <standard_type>  (564) 
IC50

>  <target_chembl_id>  (564) 
CHEMBL205

>  <data_validity_comment>  (564) 
None

>  <published_value>  (564) 
110.7

>  <document_year>  (564) 
2015

>  <target_pref_name>  (564) 
Carbonic anhydrase II

>  <assay_chembl_id>  (564) 
CHEMBL3406242

>  <standard_relation>  (564) 
=

>  <assay_description>  (564) 
Inhibition of human CA-2 using p-nitro-phenylacetate as substrate after 3 mins by UV-Vis spectrophotometry

>  <published_relation>  (564) 
=

>  <standard_value>  (564) 
110.7

>  <qudt_units>  (564) 
http://www.openphacts.org/units/Nanomolar

>  <target_tax_id>  (564) 
9606

>  <bao_label>  (564) 
single protein format

>  <published_units>  (564) 
nM

>  <pchembl_value>  (564) 
6.96

>  <published_type>  (564) 
IC50

>  <activity_comment>  (564) 
None

$$$$

     RDKit          

 30 32  0  0  0  0  0  0  0  0999 V2000
    0.0000    0.0000    0.0000 C   0  0  0  0  0  0  0  0  0  0  0  0
    0.0000    0.0000    0.0000 C   0  0  0  0  0  0  0  0  0  0  0  0
    0.0000    0.0000    0.0000 C   0  0  0  0  0  0  0  0  0  0  0  0
    0.0000    0.0000    0.0000 C   0  0  0  0  0  0  0  0  0  0  0  0
    0.0000    0.0000    0.0000 C   0  0  0  0  0  0  0  0  0  0  0  0
    0.0000    0.0000    0.0000 C   0  0  0  0  0  0  0  0  0  0  0  0
    0.0000    0.0000    0.0000 C   0  0  0  0  0  0  0  0  0  0  0  0
    0.0000    0.0000    0.0000 C   0  0  0  0  0  0  0  0  0  0  0  0
    0.0000    0.0000    0.0000 O   0  0  0  0  0  0  0  0  0  0  0  0
    0.0000    0.0000    0.0000 N   0  0  0  0  0  0  0  0  0  0  0  0
    0.0000    0.0000    0.0000 S   0  0  0  0  0  0  0  0  0  0  0  0
    0.0000    0.0000    0.0000 O   0  0  0  0  0  0  0  0  0  0  0  0
    0.0000    0.0000    0.0000 O   0  0  0  0  0  0  0  0  0  0  0  0
    0.0000    0.0000    0.0000 C   0  0  0  0  0  0  0  0  0  0  0  0
    0.0000    0.0000    0.0000 C   0  0  0  0  0  0  0  0  0  0  0  0
    0.0000    0.0000    0.0000 C   0  0  0  0  0  0  0  0  0  0  0  0
    0.0000    0.0000    0.0000 C   0  0  0  0  0  0  0  0  0  0  0  0
    0.0000    0.0000    0.0000 C   0  0  0  0  0  0  0  0  0  0  0  0
    0.0000    0.0000    0.0000 C   0  0  0  0  0  0  0  0  0  0  0  0
    0.0000    0.0000    0.0000 C   0  0  0  0  0  0  0  0  0  0  0  0
    0.0000    0.0000    0.0000 C   0  0  0  0  0  0  0  0  0  0  0  0
    0.0000    0.0000    0.0000 O   0  0  0  0  0  0  0  0  0  0  0  0
    0.0000    0.0000    0.0000 O   0  0  0  0  0  0  0  0  0  0  0  0
    0.0000    0.0000    0.0000 C   0  0  0  0  0  0  0  0  0  0  0  0
    0.0000    0.0000    0.0000 C   0  0  0  0  0  0  0  0  0  0  0  0
    0.0000    0.0000    0.0000 C   0  0  0  0  0  0  0  0  0  0  0  0
    0.0000    0.0000    0.0000 C   0  0  0  0  0  0  0  0  0  0  0  0
    0.0000    0.0000    0.0000 C   0  0  0  0  0  0  0  0  0  0  0  0
    0.0000    0.0000    0.0000 C   0  0  0  0  0  0  0  0  0  0  0  0
    0.0000    0.0000    0.0000 C   0  0  0  0  0  0  0  0  0  0  0  0
  1  2  1  0
  2  3  2  0
  3  4  1  0
  4  5  1  0
  5  6  1  0
  6  7  1  0
  6  8  1  0
  8  9  2  0
  8 10  1  0
 10 11  1  0
 11 12  2  0
 11 13  2  0
 11 14  1  0
 14 15  2  0
 15 16  1  0
 16 17  2  0
 17 18  1  0
 17 19  1  0
 19 20  2  0
  5 21  1  0
 21 22  2  0
 21 23  1  0
 23 24  1  0
 24 25  1  0
 25 26  2  0
 26 27  1  0
 27 28  2  0
 28 29  1  0
 29 30  2  0
  7  2  1  0
 20 14  1  0
 30 25  1  0
M  END
>  <pIC50>  (565) 
6.88

>  <ChEMBL_ID>  (565) 
CHEMBL3402247

>  <document_journal>  (565) 
Bioorg. Med. Chem.

>  <bao_endpoint>  (565) 
BAO_0000190

>  <potential_duplicate>  (565) 
False

>  <uo_units>  (565) 
UO_0000065

>  <canonical_smiles>  (565) 
CC1=CCC(C(C1)C(=O)NS(=O)(=O)c2ccc(C)cc2)C(=O)OCc3ccccc3

>  <parent_molecule_chembl_id>  (565) 
CHEMBL3402247

>  <assay_type>  (565) 
B

>  <src_id>  (565) 
1

>  <ligand_efficiency>  (565) 
{u'le': u'0.31', u'bei': u'16.1', u'sei': u'7.03', u'lle': u'2.75'}

>  <standard_flag>  (565) 
True

>  <molecule_chembl_id>  (565) 
CHEMBL3402247

>  <target_organism>  (565) 
Homo sapiens

>  <standard_units>  (565) 
nM

>  <record_id>  (565) 
2283396

>  <document_chembl_id>  (565) 
CHEMBL3400027

>  <bao_format>  (565) 
BAO_0000357

>  <data_validity_description>  (565) 
None

>  <activity_id>  (565) 
15184253

>  <standard_type>  (565) 
IC50

>  <target_chembl_id>  (565) 
CHEMBL205

>  <data_validity_comment>  (565) 
None

>  <published_value>  (565) 
130.6

>  <document_year>  (565) 
2015

>  <target_pref_name>  (565) 
Carbonic anhydrase II

>  <assay_chembl_id>  (565) 
CHEMBL3406242

>  <standard_relation>  (565) 
=

>  <assay_description>  (565) 
Inhibition of human CA-2 using p-nitro-phenylacetate as substrate after 3 mins by UV-Vis spectrophotometry

>  <published_relation>  (565) 
=

>  <standard_value>  (565) 
130.6

>  <qudt_units>  (565) 
http://www.openphacts.org/units/Nanomolar

>  <target_tax_id>  (565) 
9606

>  <bao_label>  (565) 
single protein format

>  <published_units>  (565) 
nM

>  <pchembl_value>  (565) 
6.88

>  <published_type>  (565) 
IC50

>  <activity_comment>  (565) 
None

$$$$

     RDKit          

 36 39  0  0  0  0  0  0  0  0999 V2000
    0.0000    0.0000    0.0000 C   0  0  0  0  0  0  0  0  0  0  0  0
    0.0000    0.0000    0.0000 C   0  0  0  0  0  0  0  0  0  0  0  0
    0.0000    0.0000    0.0000 C   0  0  0  0  0  0  0  0  0  0  0  0
    0.0000    0.0000    0.0000 C   0  0  0  0  0  0  0  0  0  0  0  0
    0.0000    0.0000    0.0000 C   0  0  0  0  0  0  0  0  0  0  0  0
    0.0000    0.0000    0.0000 C   0  0  0  0  0  0  0  0  0  0  0  0
    0.0000    0.0000    0.0000 C   0  0  0  0  0  0  0  0  0  0  0  0
    0.0000    0.0000    0.0000 S   0  0  0  0  0  0  0  0  0  0  0  0
    0.0000    0.0000    0.0000 O   0  0  0  0  0  0  0  0  0  0  0  0
    0.0000    0.0000    0.0000 O   0  0  0  0  0  0  0  0  0  0  0  0
    0.0000    0.0000    0.0000 N   0  0  0  0  0  0  0  0  0  0  0  0
    0.0000    0.0000    0.0000 C   0  0  0  0  0  0  0  0  0  0  0  0
    0.0000    0.0000    0.0000 O   0  0  0  0  0  0  0  0  0  0  0  0
    0.0000    0.0000    0.0000 C   0  0  0  0  0  0  0  0  0  0  0  0
    0.0000    0.0000    0.0000 C   0  0  0  0  0  0  0  0  0  0  0  0
    0.0000    0.0000    0.0000 C   0  0  0  0  0  0  0  0  0  0  0  0
    0.0000    0.0000    0.0000 O   0  0  0  0  0  0  0  0  0  0  0  0
    0.0000    0.0000    0.0000 O   0  0  0  0  0  0  0  0  0  0  0  0
    0.0000    0.0000    0.0000 C   0  0  0  0  0  0  0  0  0  0  0  0
    0.0000    0.0000    0.0000 C   0  0  0  0  0  0  0  0  0  0  0  0
    0.0000    0.0000    0.0000 C   0  0  0  0  0  0  0  0  0  0  0  0
    0.0000    0.0000    0.0000 C   0  0  0  0  0  0  0  0  0  0  0  0
    0.0000    0.0000    0.0000 C   0  0  0  0  0  0  0  0  0  0  0  0
    0.0000    0.0000    0.0000 C   0  0  0  0  0  0  0  0  0  0  0  0
    0.0000    0.0000    0.0000 C   0  0  0  0  0  0  0  0  0  0  0  0
    0.0000    0.0000    0.0000 C   0  0  0  0  0  0  0  0  0  0  0  0
    0.0000    0.0000    0.0000 Cl  0  0  0  0  0  0  0  0  0  0  0  0
    0.0000    0.0000    0.0000 C   0  0  0  0  0  0  0  0  0  0  0  0
    0.0000    0.0000    0.0000 C   0  0  0  0  0  0  0  0  0  0  0  0
    0.0000    0.0000    0.0000 Cl  0  0  0  0  0  0  0  0  0  0  0  0
    0.0000    0.0000    0.0000 C   0  0  0  0  0  0  0  0  0  0  0  0
    0.0000    0.0000    0.0000 Cl  0  0  0  0  0  0  0  0  0  0  0  0
    0.0000    0.0000    0.0000 C   0  0  0  0  0  0  0  0  0  0  0  0
    0.0000    0.0000    0.0000 Cl  0  0  0  0  0  0  0  0  0  0  0  0
    0.0000    0.0000    0.0000 Cl  0  0  0  0  0  0  0  0  0  0  0  0
    0.0000    0.0000    0.0000 Cl  0  0  0  0  0  0  0  0  0  0  0  0
  1  2  1  0
  2  3  2  0
  3  4  1  0
  4  5  2  0
  5  6  1  0
  6  7  2  0
  5  8  1  0
  8  9  2  0
  8 10  2  0
  8 11  1  0
 11 12  1  0
 12 13  2  0
 12 14  1  0
 14 15  1  0
 15 16  1  0
 16 17  2  0
 16 18  1  0
 18 19  1  0
 19 20  1  0
 20 21  2  0
 21 22  1  0
 22 23  2  0
 23 24  1  0
 24 25  2  0
 15 26  1  0
 26 27  1  0
 26 28  1  0
 28 29  2  0
 29 30  1  0
 29 31  1  0
 31 32  1  0
 31 33  1  0
 33 34  1  0
 33 35  1  0
 28 36  1  0
  7  2  1  0
 31 14  1  0
 25 20  1  0
 33 26  1  0
M  END
>  <pIC50>  (566) 
7.15

>  <ChEMBL_ID>  (566) 
CHEMBL3402248

>  <document_journal>  (566) 
Bioorg. Med. Chem.

>  <bao_endpoint>  (566) 
BAO_0000190

>  <potential_duplicate>  (566) 
False

>  <uo_units>  (566) 
UO_0000065

>  <canonical_smiles>  (566) 
Cc1ccc(cc1)S(=O)(=O)NC(=O)C2[C@H](C(=O)OCc3ccccc3)[C@@]4(Cl)C(=C(Cl)[C@@]2(Cl)C4(Cl)Cl)Cl

>  <parent_molecule_chembl_id>  (566) 
CHEMBL3402248

>  <assay_type>  (566) 
B

>  <src_id>  (566) 
1

>  <ligand_efficiency>  (566) 
{u'le': u'0.27', u'bei': u'11.32', u'sei': u'7.31', u'lle': u'1.63'}

>  <standard_flag>  (566) 
True

>  <molecule_chembl_id>  (566) 
CHEMBL3402248

>  <target_organism>  (566) 
Homo sapiens

>  <standard_units>  (566) 
nM

>  <record_id>  (566) 
2283397

>  <document_chembl_id>  (566) 
CHEMBL3400027

>  <bao_format>  (566) 
BAO_0000357

>  <data_validity_description>  (566) 
None

>  <activity_id>  (566) 
15184254

>  <standard_type>  (566) 
IC50

>  <target_chembl_id>  (566) 
CHEMBL205

>  <data_validity_comment>  (566) 
None

>  <published_value>  (566) 
70.1

>  <document_year>  (566) 
2015

>  <target_pref_name>  (566) 
Carbonic anhydrase II

>  <assay_chembl_id>  (566) 
CHEMBL3406242

>  <standard_relation>  (566) 
=

>  <assay_description>  (566) 
Inhibition of human CA-2 using p-nitro-phenylacetate as substrate after 3 mins by UV-Vis spectrophotometry

>  <published_relation>  (566) 
=

>  <standard_value>  (566) 
70.1

>  <qudt_units>  (566) 
http://www.openphacts.org/units/Nanomolar

>  <target_tax_id>  (566) 
9606

>  <bao_label>  (566) 
single protein format

>  <published_units>  (566) 
nM

>  <pchembl_value>  (566) 
7.15

>  <published_type>  (566) 
IC50

>  <activity_comment>  (566) 
None

$$$$

     RDKit          

 26 28  0  0  0  0  0  0  0  0999 V2000
    0.0000    0.0000    0.0000 C   0  0  0  0  0  0  0  0  0  0  0  0
    0.0000    0.0000    0.0000 C   0  0  0  0  0  0  0  0  0  0  0  0
    0.0000    0.0000    0.0000 C   0  0  0  0  0  0  0  0  0  0  0  0
    0.0000    0.0000    0.0000 C   0  0  0  0  0  0  0  0  0  0  0  0
    0.0000    0.0000    0.0000 C   0  0  0  0  0  0  0  0  0  0  0  0
    0.0000    0.0000    0.0000 C   0  0  0  0  0  0  0  0  0  0  0  0
    0.0000    0.0000    0.0000 C   0  0  0  0  0  0  0  0  0  0  0  0
    0.0000    0.0000    0.0000 S   0  0  0  0  0  0  0  0  0  0  0  0
    0.0000    0.0000    0.0000 O   0  0  0  0  0  0  0  0  0  0  0  0
    0.0000    0.0000    0.0000 O   0  0  0  0  0  0  0  0  0  0  0  0
    0.0000    0.0000    0.0000 N   0  0  0  0  0  0  0  0  0  0  0  0
    0.0000    0.0000    0.0000 C   0  0  0  0  0  0  0  0  0  0  0  0
    0.0000    0.0000    0.0000 O   0  0  0  0  0  0  0  0  0  0  0  0
    0.0000    0.0000    0.0000 C   0  0  0  0  0  0  0  0  0  0  0  0
    0.0000    0.0000    0.0000 C   0  0  0  0  0  0  0  0  0  0  0  0
    0.0000    0.0000    0.0000 C   0  0  0  0  0  0  0  0  0  0  0  0
    0.0000    0.0000    0.0000 C   0  0  0  0  0  0  0  0  0  0  0  0
    0.0000    0.0000    0.0000 C   0  0  0  0  0  0  0  0  0  0  0  0
    0.0000    0.0000    0.0000 C   0  0  0  0  0  0  0  0  0  0  0  0
    0.0000    0.0000    0.0000 O   0  0  0  0  0  0  0  0  0  0  0  0
    0.0000    0.0000    0.0000 C   0  0  0  0  0  0  0  0  0  0  0  0
    0.0000    0.0000    0.0000 O   0  0  0  0  0  0  0  0  0  0  0  0
    0.0000    0.0000    0.0000 C   0  0  0  0  0  0  0  0  0  0  0  0
    0.0000    0.0000    0.0000 C   0  0  0  0  0  0  0  0  0  0  0  0
    0.0000    0.0000    0.0000 O   0  0  0  0  0  0  0  0  0  0  0  0
    0.0000    0.0000    0.0000 O   0  0  0  0  0  0  0  0  0  0  0  0
  1  2  1  0
  2  3  2  0
  3  4  1  0
  4  5  2  0
  5  6  1  0
  6  7  2  0
  5  8  1  0
  8  9  2  0
  8 10  2  0
  8 11  1  0
 11 12  1  0
 12 13  2  0
 12 14  1  0
 14 15  1  0
 15 16  1  0
 16 17  1  0
 17 18  1  0
 18 19  1  0
 19 20  1  0
 19 21  1  0
 21 22  1  0
 18 23  1  0
 23 24  1  0
 24 25  2  0
 24 26  1  0
  7  2  1  0
 23 14  1  0
 21 15  1  0
M  END
>  <pIC50>  (567) 
6.9

>  <ChEMBL_ID>  (567) 
CHEMBL3402249

>  <document_journal>  (567) 
Bioorg. Med. Chem.

>  <bao_endpoint>  (567) 
BAO_0000190

>  <potential_duplicate>  (567) 
False

>  <uo_units>  (567) 
UO_0000065

>  <canonical_smiles>  (567) 
Cc1ccc(cc1)S(=O)(=O)NC(=O)C2[C@@H]3CC[C@@H]([C@@H](O)[C@H]3O)C2C(=O)O

>  <parent_molecule_chembl_id>  (567) 
CHEMBL3402249

>  <assay_type>  (567) 
B

>  <src_id>  (567) 
1

>  <ligand_efficiency>  (567) 
{u'le': u'0.36', u'bei': u'17.99', u'sei': u'4.62', u'lle': u'6.51'}

>  <standard_flag>  (567) 
True

>  <molecule_chembl_id>  (567) 
CHEMBL3402249

>  <target_organism>  (567) 
Homo sapiens

>  <standard_units>  (567) 
nM

>  <record_id>  (567) 
2283398

>  <document_chembl_id>  (567) 
CHEMBL3400027

>  <bao_format>  (567) 
BAO_0000357

>  <data_validity_description>  (567) 
None

>  <activity_id>  (567) 
15184255

>  <standard_type>  (567) 
IC50

>  <target_chembl_id>  (567) 
CHEMBL205

>  <data_validity_comment>  (567) 
None

>  <published_value>  (567) 
126.5

>  <document_year>  (567) 
2015

>  <target_pref_name>  (567) 
Carbonic anhydrase II

>  <assay_chembl_id>  (567) 
CHEMBL3406242

>  <standard_relation>  (567) 
=

>  <assay_description>  (567) 
Inhibition of human CA-2 using p-nitro-phenylacetate as substrate after 3 mins by UV-Vis spectrophotometry

>  <published_relation>  (567) 
=

>  <standard_value>  (567) 
126.5

>  <qudt_units>  (567) 
http://www.openphacts.org/units/Nanomolar

>  <target_tax_id>  (567) 
9606

>  <bao_label>  (567) 
single protein format

>  <published_units>  (567) 
nM

>  <pchembl_value>  (567) 
6.9

>  <published_type>  (567) 
IC50

>  <activity_comment>  (567) 
None

$$$$

     RDKit          

 25 27  0  0  0  0  0  0  0  0999 V2000
    0.0000    0.0000    0.0000 C   0  0  0  0  0  0  0  0  0  0  0  0
    0.0000    0.0000    0.0000 C   0  0  0  0  0  0  0  0  0  0  0  0
    0.0000    0.0000    0.0000 C   0  0  0  0  0  0  0  0  0  0  0  0
    0.0000    0.0000    0.0000 C   0  0  0  0  0  0  0  0  0  0  0  0
    0.0000    0.0000    0.0000 C   0  0  0  0  0  0  0  0  0  0  0  0
    0.0000    0.0000    0.0000 C   0  0  0  0  0  0  0  0  0  0  0  0
    0.0000    0.0000    0.0000 C   0  0  0  0  0  0  0  0  0  0  0  0
    0.0000    0.0000    0.0000 S   0  0  0  0  0  0  0  0  0  0  0  0
    0.0000    0.0000    0.0000 O   0  0  0  0  0  0  0  0  0  0  0  0
    0.0000    0.0000    0.0000 O   0  0  0  0  0  0  0  0  0  0  0  0
    0.0000    0.0000    0.0000 N   0  0  0  0  0  0  0  0  0  0  0  0
    0.0000    0.0000    0.0000 C   0  0  0  0  0  0  0  0  0  0  0  0
    0.0000    0.0000    0.0000 O   0  0  0  0  0  0  0  0  0  0  0  0
    0.0000    0.0000    0.0000 C   0  0  0  0  0  0  0  0  0  0  0  0
    0.0000    0.0000    0.0000 C   0  0  0  0  0  0  0  0  0  0  0  0
    0.0000    0.0000    0.0000 C   0  0  0  0  0  0  0  0  0  0  0  0
    0.0000    0.0000    0.0000 C   0  0  0  0  0  0  0  0  0  0  0  0
    0.0000    0.0000    0.0000 C   0  0  0  0  0  0  0  0  0  0  0  0
    0.0000    0.0000    0.0000 O   0  0  0  0  0  0  0  0  0  0  0  0
    0.0000    0.0000    0.0000 C   0  0  0  0  0  0  0  0  0  0  0  0
    0.0000    0.0000    0.0000 O   0  0  0  0  0  0  0  0  0  0  0  0
    0.0000    0.0000    0.0000 C   0  0  0  0  0  0  0  0  0  0  0  0
    0.0000    0.0000    0.0000 C   0  0  0  0  0  0  0  0  0  0  0  0
    0.0000    0.0000    0.0000 O   0  0  0  0  0  0  0  0  0  0  0  0
    0.0000    0.0000    0.0000 O   0  0  0  0  0  0  0  0  0  0  0  0
  1  2  1  0
  2  3  2  0
  3  4  1  0
  4  5  2  0
  5  6  1  0
  6  7  2  0
  5  8  1  0
  8  9  2  0
  8 10  2  0
  8 11  1  0
 11 12  1  0
 12 13  2  0
 12 14  1  0
 14 15  1  0
 15 16  1  0
 16 17  1  0
 17 18  1  0
 18 19  1  0
 18 20  1  0
 20 21  1  0
 17 22  1  0
 22 23  1  0
 23 24  2  0
 23 25  1  0
  7  2  1  0
 22 14  1  0
 20 15  1  0
M  END
>  <pIC50>  (568) 
6.96

>  <ChEMBL_ID>  (568) 
CHEMBL3402250

>  <document_journal>  (568) 
Bioorg. Med. Chem.

>  <bao_endpoint>  (568) 
BAO_0000190

>  <potential_duplicate>  (568) 
False

>  <uo_units>  (568) 
UO_0000065

>  <canonical_smiles>  (568) 
Cc1ccc(cc1)S(=O)(=O)NC(=O)[C@H]2[C@@H]3C[C@@H]([C@@H](O)[C@H]3O)[C@H]2C(=O)O

>  <parent_molecule_chembl_id>  (568) 
CHEMBL3402250

>  <assay_type>  (568) 
B

>  <src_id>  (568) 
1

>  <ligand_efficiency>  (568) 
{u'le': u'0.38', u'bei': u'18.83', u'sei': u'4.66', u'lle': u'7.03'}

>  <standard_flag>  (568) 
True

>  <molecule_chembl_id>  (568) 
CHEMBL3402250

>  <target_organism>  (568) 
Homo sapiens

>  <standard_units>  (568) 
nM

>  <record_id>  (568) 
2283399

>  <document_chembl_id>  (568) 
CHEMBL3400027

>  <bao_format>  (568) 
BAO_0000357

>  <data_validity_description>  (568) 
None

>  <activity_id>  (568) 
15184256

>  <standard_type>  (568) 
IC50

>  <target_chembl_id>  (568) 
CHEMBL205

>  <data_validity_comment>  (568) 
None

>  <published_value>  (568) 
110.9

>  <document_year>  (568) 
2015

>  <target_pref_name>  (568) 
Carbonic anhydrase II

>  <assay_chembl_id>  (568) 
CHEMBL3406242

>  <standard_relation>  (568) 
=

>  <assay_description>  (568) 
Inhibition of human CA-2 using p-nitro-phenylacetate as substrate after 3 mins by UV-Vis spectrophotometry

>  <published_relation>  (568) 
=

>  <standard_value>  (568) 
110.9

>  <qudt_units>  (568) 
http://www.openphacts.org/units/Nanomolar

>  <target_tax_id>  (568) 
9606

>  <bao_label>  (568) 
single protein format

>  <published_units>  (568) 
nM

>  <pchembl_value>  (568) 
6.96

>  <published_type>  (568) 
IC50

>  <activity_comment>  (568) 
None

$$$$

     RDKit          

 24 25  0  0  0  0  0  0  0  0999 V2000
    0.0000    0.0000    0.0000 C   0  0  0  0  0  0  0  0  0  0  0  0
    0.0000    0.0000    0.0000 C   0  0  0  0  0  0  0  0  0  0  0  0
    0.0000    0.0000    0.0000 C   0  0  0  0  0  0  0  0  0  0  0  0
    0.0000    0.0000    0.0000 C   0  0  0  0  0  0  0  0  0  0  0  0
    0.0000    0.0000    0.0000 C   0  0  0  0  0  0  0  0  0  0  0  0
    0.0000    0.0000    0.0000 C   0  0  0  0  0  0  0  0  0  0  0  0
    0.0000    0.0000    0.0000 C   0  0  0  0  0  0  0  0  0  0  0  0
    0.0000    0.0000    0.0000 S   0  0  0  0  0  0  0  0  0  0  0  0
    0.0000    0.0000    0.0000 O   0  0  0  0  0  0  0  0  0  0  0  0
    0.0000    0.0000    0.0000 O   0  0  0  0  0  0  0  0  0  0  0  0
    0.0000    0.0000    0.0000 N   0  0  0  0  0  0  0  0  0  0  0  0
    0.0000    0.0000    0.0000 C   0  0  0  0  0  0  0  0  0  0  0  0
    0.0000    0.0000    0.0000 O   0  0  0  0  0  0  0  0  0  0  0  0
    0.0000    0.0000    0.0000 C   0  0  0  0  0  0  0  0  0  0  0  0
    0.0000    0.0000    0.0000 C   0  0  0  0  0  0  0  0  0  0  0  0
    0.0000    0.0000    0.0000 C   0  0  0  0  0  0  0  0  0  0  0  0
    0.0000    0.0000    0.0000 O   0  0  0  0  0  0  0  0  0  0  0  0
    0.0000    0.0000    0.0000 C   0  0  0  0  0  0  0  0  0  0  0  0
    0.0000    0.0000    0.0000 O   0  0  0  0  0  0  0  0  0  0  0  0
    0.0000    0.0000    0.0000 C   0  0  0  0  0  0  0  0  0  0  0  0
    0.0000    0.0000    0.0000 C   0  0  0  0  0  0  0  0  0  0  0  0
    0.0000    0.0000    0.0000 C   0  0  0  0  0  0  0  0  0  0  0  0
    0.0000    0.0000    0.0000 O   0  0  0  0  0  0  0  0  0  0  0  0
    0.0000    0.0000    0.0000 O   0  0  0  0  0  0  0  0  0  0  0  0
  1  2  1  0
  2  3  2  0
  3  4  1  0
  4  5  2  0
  5  6  1  0
  6  7  2  0
  5  8  1  0
  8  9  2  0
  8 10  2  0
  8 11  1  0
 11 12  1  0
 12 13  2  0
 12 14  1  0
 14 15  1  0
 15 16  1  0
 16 17  1  0
 16 18  1  0
 18 19  1  0
 18 20  1  0
 20 21  1  0
 21 22  1  0
 22 23  2  0
 22 24  1  0
  7  2  1  0
 21 14  1  0
M  END
>  <pIC50>  (569) 
6.81

>  <ChEMBL_ID>  (569) 
CHEMBL3402251

>  <document_journal>  (569) 
Bioorg. Med. Chem.

>  <bao_endpoint>  (569) 
BAO_0000190

>  <potential_duplicate>  (569) 
False

>  <uo_units>  (569) 
UO_0000065

>  <canonical_smiles>  (569) 
Cc1ccc(cc1)S(=O)(=O)NC(=O)C2CC(O)C(O)CC2C(=O)O

>  <parent_molecule_chembl_id>  (569) 
CHEMBL3402251

>  <assay_type>  (569) 
B

>  <src_id>  (569) 
1

>  <ligand_efficiency>  (569) 
{u'le': u'0.39', u'bei': u'19.06', u'sei': u'4.56', u'lle': u'6.69'}

>  <standard_flag>  (569) 
True

>  <molecule_chembl_id>  (569) 
CHEMBL3402251

>  <target_organism>  (569) 
Homo sapiens

>  <standard_units>  (569) 
nM

>  <record_id>  (569) 
2283400

>  <document_chembl_id>  (569) 
CHEMBL3400027

>  <bao_format>  (569) 
BAO_0000357

>  <data_validity_description>  (569) 
None

>  <activity_id>  (569) 
15184257

>  <standard_type>  (569) 
IC50

>  <target_chembl_id>  (569) 
CHEMBL205

>  <data_validity_comment>  (569) 
None

>  <published_value>  (569) 
154.4

>  <document_year>  (569) 
2015

>  <target_pref_name>  (569) 
Carbonic anhydrase II

>  <assay_chembl_id>  (569) 
CHEMBL3406242

>  <standard_relation>  (569) 
=

>  <assay_description>  (569) 
Inhibition of human CA-2 using p-nitro-phenylacetate as substrate after 3 mins by UV-Vis spectrophotometry

>  <published_relation>  (569) 
=

>  <standard_value>  (569) 
154.4

>  <qudt_units>  (569) 
http://www.openphacts.org/units/Nanomolar

>  <target_tax_id>  (569) 
9606

>  <bao_label>  (569) 
single protein format

>  <published_units>  (569) 
nM

>  <pchembl_value>  (569) 
6.81

>  <published_type>  (569) 
IC50

>  <activity_comment>  (569) 
None

$$$$

     RDKit          

 25 26  0  0  0  0  0  0  0  0999 V2000
    0.0000    0.0000    0.0000 C   0  0  0  0  0  0  0  0  0  0  0  0
    0.0000    0.0000    0.0000 C   0  0  0  0  0  0  0  0  0  0  0  0
    0.0000    0.0000    0.0000 C   0  0  0  0  0  0  0  0  0  0  0  0
    0.0000    0.0000    0.0000 C   0  0  0  0  0  0  0  0  0  0  0  0
    0.0000    0.0000    0.0000 C   0  0  0  0  0  0  0  0  0  0  0  0
    0.0000    0.0000    0.0000 C   0  0  0  0  0  0  0  0  0  0  0  0
    0.0000    0.0000    0.0000 C   0  0  0  0  0  0  0  0  0  0  0  0
    0.0000    0.0000    0.0000 S   0  0  0  0  0  0  0  0  0  0  0  0
    0.0000    0.0000    0.0000 O   0  0  0  0  0  0  0  0  0  0  0  0
    0.0000    0.0000    0.0000 O   0  0  0  0  0  0  0  0  0  0  0  0
    0.0000    0.0000    0.0000 N   0  0  0  0  0  0  0  0  0  0  0  0
    0.0000    0.0000    0.0000 C   0  0  0  0  0  0  0  0  0  0  0  0
    0.0000    0.0000    0.0000 O   0  0  0  0  0  0  0  0  0  0  0  0
    0.0000    0.0000    0.0000 C   0  0  0  0  0  0  0  0  0  0  0  0
    0.0000    0.0000    0.0000 C   0  0  0  0  0  0  0  0  0  0  0  0
    0.0000    0.0000    0.0000 C   0  0  0  0  0  0  0  0  0  0  0  0
    0.0000    0.0000    0.0000 C   0  0  0  0  0  0  0  0  0  0  0  0
    0.0000    0.0000    0.0000 O   0  0  0  0  0  0  0  0  0  0  0  0
    0.0000    0.0000    0.0000 C   0  0  0  0  0  0  0  0  0  0  0  0
    0.0000    0.0000    0.0000 O   0  0  0  0  0  0  0  0  0  0  0  0
    0.0000    0.0000    0.0000 C   0  0  0  0  0  0  0  0  0  0  0  0
    0.0000    0.0000    0.0000 C   0  0  0  0  0  0  0  0  0  0  0  0
    0.0000    0.0000    0.0000 C   0  0  0  0  0  0  0  0  0  0  0  0
    0.0000    0.0000    0.0000 O   0  0  0  0  0  0  0  0  0  0  0  0
    0.0000    0.0000    0.0000 O   0  0  0  0  0  0  0  0  0  0  0  0
  1  2  1  0
  2  3  2  0
  3  4  1  0
  4  5  2  0
  5  6  1  0
  6  7  2  0
  5  8  1  0
  8  9  2  0
  8 10  2  0
  8 11  1  0
 11 12  1  0
 12 13  2  0
 12 14  1  0
 14 15  1  0
 15 16  1  0
 16 17  1  0
 16 18  1  0
 16 19  1  0
 19 20  1  0
 19 21  1  0
 21 22  1  0
 22 23  1  0
 23 24  2  0
 23 25  1  0
  7  2  1  0
 22 14  1  0
M  END
>  <pIC50>  (570) 
6.84

>  <ChEMBL_ID>  (570) 
CHEMBL3402252

>  <document_journal>  (570) 
Bioorg. Med. Chem.

>  <bao_endpoint>  (570) 
BAO_0000190

>  <potential_duplicate>  (570) 
False

>  <uo_units>  (570) 
UO_0000065

>  <canonical_smiles>  (570) 
Cc1ccc(cc1)S(=O)(=O)NC(=O)C2CC(C)(O)C(O)CC2C(=O)O

>  <parent_molecule_chembl_id>  (570) 
CHEMBL3402252

>  <assay_type>  (570) 
B

>  <src_id>  (570) 
1

>  <ligand_efficiency>  (570) 
{u'le': u'0.37', u'bei': u'18.42', u'sei': u'4.58', u'lle': u'6.52'}

>  <standard_flag>  (570) 
True

>  <molecule_chembl_id>  (570) 
CHEMBL3402252

>  <target_organism>  (570) 
Homo sapiens

>  <standard_units>  (570) 
nM

>  <record_id>  (570) 
2283401

>  <document_chembl_id>  (570) 
CHEMBL3400027

>  <bao_format>  (570) 
BAO_0000357

>  <data_validity_description>  (570) 
None

>  <activity_id>  (570) 
15184258

>  <standard_type>  (570) 
IC50

>  <target_chembl_id>  (570) 
CHEMBL205

>  <data_validity_comment>  (570) 
None

>  <published_value>  (570) 
144.1

>  <document_year>  (570) 
2015

>  <target_pref_name>  (570) 
Carbonic anhydrase II

>  <assay_chembl_id>  (570) 
CHEMBL3406242

>  <standard_relation>  (570) 
=

>  <assay_description>  (570) 
Inhibition of human CA-2 using p-nitro-phenylacetate as substrate after 3 mins by UV-Vis spectrophotometry

>  <published_relation>  (570) 
=

>  <standard_value>  (570) 
144.1

>  <qudt_units>  (570) 
http://www.openphacts.org/units/Nanomolar

>  <target_tax_id>  (570) 
9606

>  <bao_label>  (570) 
single protein format

>  <published_units>  (570) 
nM

>  <pchembl_value>  (570) 
6.84

>  <published_type>  (570) 
IC50

>  <activity_comment>  (570) 
None

$$$$

     RDKit          

 31 33  0  0  0  0  0  0  0  0999 V2000
    0.0000    0.0000    0.0000 C   0  0  0  0  0  0  0  0  0  0  0  0
    0.0000    0.0000    0.0000 C   0  0  0  0  0  0  0  0  0  0  0  0
    0.0000    0.0000    0.0000 C   0  0  0  0  0  0  0  0  0  0  0  0
    0.0000    0.0000    0.0000 C   0  0  0  0  0  0  0  0  0  0  0  0
    0.0000    0.0000    0.0000 C   0  0  0  0  0  0  0  0  0  0  0  0
    0.0000    0.0000    0.0000 C   0  0  0  0  0  0  0  0  0  0  0  0
    0.0000    0.0000    0.0000 C   0  0  0  0  0  0  0  0  0  0  0  0
    0.0000    0.0000    0.0000 S   0  0  0  0  0  0  0  0  0  0  0  0
    0.0000    0.0000    0.0000 O   0  0  0  0  0  0  0  0  0  0  0  0
    0.0000    0.0000    0.0000 O   0  0  0  0  0  0  0  0  0  0  0  0
    0.0000    0.0000    0.0000 N   0  0  0  0  0  0  0  0  0  0  0  0
    0.0000    0.0000    0.0000 C   0  0  0  0  0  0  0  0  0  0  0  0
    0.0000    0.0000    0.0000 O   0  0  0  0  0  0  0  0  0  0  0  0
    0.0000    0.0000    0.0000 C   0  0  0  0  0  0  0  0  0  0  0  0
    0.0000    0.0000    0.0000 C   0  0  0  0  0  0  0  0  0  0  0  0
    0.0000    0.0000    0.0000 C   0  0  0  0  0  0  0  0  0  0  0  0
    0.0000    0.0000    0.0000 O   0  0  0  0  0  0  0  0  0  0  0  0
    0.0000    0.0000    0.0000 O   0  0  0  0  0  0  0  0  0  0  0  0
    0.0000    0.0000    0.0000 C   0  0  0  0  0  0  0  0  0  0  0  0
    0.0000    0.0000    0.0000 Cl  0  0  0  0  0  0  0  0  0  0  0  0
    0.0000    0.0000    0.0000 C   0  0  0  0  0  0  0  0  0  0  0  0
    0.0000    0.0000    0.0000 O   0  0  0  0  0  0  0  0  0  0  0  0
    0.0000    0.0000    0.0000 Cl  0  0  0  0  0  0  0  0  0  0  0  0
    0.0000    0.0000    0.0000 C   0  0  0  0  0  0  0  0  0  0  0  0
    0.0000    0.0000    0.0000 O   0  0  0  0  0  0  0  0  0  0  0  0
    0.0000    0.0000    0.0000 Cl  0  0  0  0  0  0  0  0  0  0  0  0
    0.0000    0.0000    0.0000 C   0  0  0  0  0  0  0  0  0  0  0  0
    0.0000    0.0000    0.0000 Cl  0  0  0  0  0  0  0  0  0  0  0  0
    0.0000    0.0000    0.0000 C   0  0  0  0  0  0  0  0  0  0  0  0
    0.0000    0.0000    0.0000 Cl  0  0  0  0  0  0  0  0  0  0  0  0
    0.0000    0.0000    0.0000 Cl  0  0  0  0  0  0  0  0  0  0  0  0
  1  2  1  0
  2  3  2  0
  3  4  1  0
  4  5  2  0
  5  6  1  0
  6  7  2  0
  5  8  1  0
  8  9  2  0
  8 10  2  0
  8 11  1  0
 11 12  1  0
 12 13  2  0
 12 14  1  0
 14 15  1  0
 15 16  1  0
 16 17  2  0
 16 18  1  0
 15 19  1  0
 19 20  1  0
 19 21  1  0
 21 22  1  0
 21 23  1  0
 21 24  1  0
 24 25  1  0
 24 26  1  0
 24 27  1  0
 27 28  1  0
 27 29  1  0
 29 30  1  0
 29 31  1  0
  7  2  1  0
 27 14  1  0
 29 19  1  0
M  END
>  <pIC50>  (571) 
6.92

>  <ChEMBL_ID>  (571) 
CHEMBL3402253

>  <document_journal>  (571) 
Bioorg. Med. Chem.

>  <bao_endpoint>  (571) 
BAO_0000190

>  <potential_duplicate>  (571) 
False

>  <uo_units>  (571) 
UO_0000065

>  <canonical_smiles>  (571) 
Cc1ccc(cc1)S(=O)(=O)NC(=O)[C@@H]2[C@H](C(=O)O)[C@@]3(Cl)[C@@](O)(Cl)[C@](O)(Cl)[C@@]2(Cl)C3(Cl)Cl

>  <parent_molecule_chembl_id>  (571) 
CHEMBL3402253

>  <assay_type>  (571) 
B

>  <src_id>  (571) 
1

>  <ligand_efficiency>  (571) 
{u'le': u'0.3', u'bei': u'12.01', u'sei': u'4.63', u'lle': u'4.23'}

>  <standard_flag>  (571) 
True

>  <molecule_chembl_id>  (571) 
CHEMBL3402253

>  <target_organism>  (571) 
Homo sapiens

>  <standard_units>  (571) 
nM

>  <record_id>  (571) 
2283402

>  <document_chembl_id>  (571) 
CHEMBL3400027

>  <bao_format>  (571) 
BAO_0000357

>  <data_validity_description>  (571) 
None

>  <activity_id>  (571) 
15184259

>  <standard_type>  (571) 
IC50

>  <target_chembl_id>  (571) 
CHEMBL205

>  <data_validity_comment>  (571) 
None

>  <published_value>  (571) 
120.3

>  <document_year>  (571) 
2015

>  <target_pref_name>  (571) 
Carbonic anhydrase II

>  <assay_chembl_id>  (571) 
CHEMBL3406242

>  <standard_relation>  (571) 
=

>  <assay_description>  (571) 
Inhibition of human CA-2 using p-nitro-phenylacetate as substrate after 3 mins by UV-Vis spectrophotometry

>  <published_relation>  (571) 
=

>  <standard_value>  (571) 
120.3

>  <qudt_units>  (571) 
http://www.openphacts.org/units/Nanomolar

>  <target_tax_id>  (571) 
9606

>  <bao_label>  (571) 
single protein format

>  <published_units>  (571) 
nM

>  <pchembl_value>  (571) 
6.92

>  <published_type>  (571) 
IC50

>  <activity_comment>  (571) 
None

$$$$

     RDKit          

 22 23  0  0  0  0  0  0  0  0999 V2000
    0.0000    0.0000    0.0000 C   0  0  0  0  0  0  0  0  0  0  0  0
    0.0000    0.0000    0.0000 C   0  0  0  0  0  0  0  0  0  0  0  0
    0.0000    0.0000    0.0000 N   0  0  0  0  0  0  0  0  0  0  0  0
    0.0000    0.0000    0.0000 C   0  0  0  0  0  0  0  0  0  0  0  0
    0.0000    0.0000    0.0000 C   0  0  0  0  0  0  0  0  0  0  0  0
    0.0000    0.0000    0.0000 N   0  0  0  0  0  0  0  0  0  0  0  0
    0.0000    0.0000    0.0000 C   0  0  0  0  0  0  0  0  0  0  0  0
    0.0000    0.0000    0.0000 C   0  0  0  0  0  0  0  0  0  0  0  0
    0.0000    0.0000    0.0000 C   0  0  0  0  0  0  0  0  0  0  0  0
    0.0000    0.0000    0.0000 O   0  0  0  0  0  0  0  0  0  0  0  0
    0.0000    0.0000    0.0000 S   0  0  0  0  0  0  0  0  0  0  0  0
    0.0000    0.0000    0.0000 O   0  0  0  0  0  0  0  0  0  0  0  0
    0.0000    0.0000    0.0000 O   0  0  0  0  0  0  0  0  0  0  0  0
    0.0000    0.0000    0.0000 C   0  0  0  0  0  0  0  0  0  0  0  0
    0.0000    0.0000    0.0000 S   0  0  0  0  0  0  0  0  0  0  0  0
    0.0000    0.0000    0.0000 C   0  0  0  0  0  0  0  0  0  0  0  0
    0.0000    0.0000    0.0000 C   0  0  0  0  0  0  0  0  0  0  0  0
    0.0000    0.0000    0.0000 C   0  0  0  0  0  0  0  0  0  0  0  0
    0.0000    0.0000    0.0000 S   0  0  0  0  0  0  0  0  0  0  0  0
    0.0000    0.0000    0.0000 O   0  0  0  0  0  0  0  0  0  0  0  0
    0.0000    0.0000    0.0000 O   0  0  0  0  0  0  0  0  0  0  0  0
    0.0000    0.0000    0.0000 N   0  0  0  0  0  0  0  0  0  0  0  0
  1  2  1  0
  2  3  1  0
  3  4  1  0
  4  5  1  0
  5  6  1  0
  6  7  1  0
  7  8  1  0
  8  9  1  0
  9 10  1  0
  6 11  1  0
 11 12  2  0
 11 13  2  0
 11 14  1  0
 14 15  1  0
 15 16  1  0
 16 17  2  0
 17 18  1  0
 16 19  1  0
 19 20  2  0
 19 21  2  0
 19 22  1  0
 18  4  1  0
 18 14  2  0
M  END
>  <pIC50>  (572) 
6.78

>  <ChEMBL_ID>  (572) 
CHEMBL3415384

>  <document_journal>  (572) 
J. Med. Chem.

>  <bao_endpoint>  (572) 
BAO_0000190

>  <potential_duplicate>  (572) 
False

>  <uo_units>  (572) 
UO_0000065

>  <canonical_smiles>  (572) 
CCN[C@H]1CN(CCCO)S(=O)(=O)c2sc(cc12)S(=O)(=O)N

>  <parent_molecule_chembl_id>  (572) 
CHEMBL3415384

>  <assay_type>  (572) 
B

>  <src_id>  (572) 
1

>  <ligand_efficiency>  (572) 
{u'le': u'0.42', u'bei': u'18.36', u'sei': u'3.88', u'lle': u'7.96'}

>  <standard_flag>  (572) 
True

>  <molecule_chembl_id>  (572) 
CHEMBL3415384

>  <target_organism>  (572) 
Homo sapiens

>  <standard_units>  (572) 
nM

>  <record_id>  (572) 
2290954

>  <document_chembl_id>  (572) 
CHEMBL3414464

>  <bao_format>  (572) 
BAO_0000357

>  <data_validity_description>  (572) 
None

>  <activity_id>  (572) 
15212957

>  <standard_type>  (572) 
IC50

>  <target_chembl_id>  (572) 
CHEMBL205

>  <data_validity_comment>  (572) 
None

>  <published_value>  (572) 
165

>  <document_year>  (572) 
2015

>  <target_pref_name>  (572) 
Carbonic anhydrase II

>  <assay_chembl_id>  (572) 
CHEMBL3419422

>  <standard_relation>  (572) 
=

>  <assay_description>  (572) 
Inhibition of human carbonic anhydrase 2 assessed as reduction in enzyme activity incubated for 30 mins by fluorescence polarization assay

>  <published_relation>  (572) 
=

>  <standard_value>  (572) 
165

>  <qudt_units>  (572) 
http://www.openphacts.org/units/Nanomolar

>  <target_tax_id>  (572) 
9606

>  <bao_label>  (572) 
single protein format

>  <published_units>  (572) 
nM

>  <pchembl_value>  (572) 
6.78

>  <published_type>  (572) 
IC50

>  <activity_comment>  (572) 
None

$$$$

     RDKit          

 25 26  0  0  0  0  0  0  0  0999 V2000
    0.0000    0.0000    0.0000 C   0  0  0  0  0  0  0  0  0  0  0  0
    0.0000    0.0000    0.0000 C   0  0  0  0  0  0  0  0  0  0  0  0
    0.0000    0.0000    0.0000 N   0  0  0  0  0  0  0  0  0  0  0  0
    0.0000    0.0000    0.0000 C   0  0  0  0  0  0  0  0  0  0  0  0
    0.0000    0.0000    0.0000 C   0  0  0  0  0  0  0  0  0  0  0  0
    0.0000    0.0000    0.0000 N   0  0  0  0  0  0  0  0  0  0  0  0
    0.0000    0.0000    0.0000 C   0  0  0  0  0  0  0  0  0  0  0  0
    0.0000    0.0000    0.0000 C   0  0  0  0  0  0  0  0  0  0  0  0
    0.0000    0.0000    0.0000 C   0  0  0  0  0  0  0  0  0  0  0  0
    0.0000    0.0000    0.0000 O   0  0  0  0  0  0  0  0  0  0  0  0
    0.0000    0.0000    0.0000 N   0  0  0  0  0  0  0  0  0  0  0  0
    0.0000    0.0000    0.0000 O   0  0  0  0  0  0  0  0  0  0  0  0
    0.0000    0.0000    0.0000 O   0  0  0  0  0  0  0  0  0  0  0  0
    0.0000    0.0000    0.0000 S   0  0  0  0  0  0  0  0  0  0  0  0
    0.0000    0.0000    0.0000 O   0  0  0  0  0  0  0  0  0  0  0  0
    0.0000    0.0000    0.0000 O   0  0  0  0  0  0  0  0  0  0  0  0
    0.0000    0.0000    0.0000 C   0  0  0  0  0  0  0  0  0  0  0  0
    0.0000    0.0000    0.0000 S   0  0  0  0  0  0  0  0  0  0  0  0
    0.0000    0.0000    0.0000 C   0  0  0  0  0  0  0  0  0  0  0  0
    0.0000    0.0000    0.0000 C   0  0  0  0  0  0  0  0  0  0  0  0
    0.0000    0.0000    0.0000 C   0  0  0  0  0  0  0  0  0  0  0  0
    0.0000    0.0000    0.0000 S   0  0  0  0  0  0  0  0  0  0  0  0
    0.0000    0.0000    0.0000 O   0  0  0  0  0  0  0  0  0  0  0  0
    0.0000    0.0000    0.0000 O   0  0  0  0  0  0  0  0  0  0  0  0
    0.0000    0.0000    0.0000 N   0  0  0  0  0  0  0  0  0  0  0  0
  1  2  1  0
  2  3  1  0
  3  4  1  0
  4  5  1  0
  5  6  1  0
  6  7  1  0
  7  8  1  0
  8  9  1  0
  9 10  1  0
 10 11  1  0
 11 12  2  0
 11 13  1  0
  6 14  1  0
 14 15  2  0
 14 16  2  0
 14 17  1  0
 17 18  1  0
 18 19  1  0
 19 20  2  0
 20 21  1  0
 19 22  1  0
 22 23  2  0
 22 24  2  0
 22 25  1  0
 21  4  1  0
 21 17  2  0
M  CHG  2  11   1  13  -1
M  END
>  <pIC50>  (573) 
7.51

>  <ChEMBL_ID>  (573) 
CHEMBL3415383

>  <document_journal>  (573) 
J. Med. Chem.

>  <bao_endpoint>  (573) 
BAO_0000190

>  <potential_duplicate>  (573) 
False

>  <uo_units>  (573) 
UO_0000065

>  <canonical_smiles>  (573) 
CCN[C@H]1CN(CCCO[N+](=O)[O-])S(=O)(=O)c2sc(cc12)S(=O)(=O)N

>  <parent_molecule_chembl_id>  (573) 
CHEMBL3415383

>  <assay_type>  (573) 
B

>  <src_id>  (573) 
1

>  <ligand_efficiency>  (573) 
{u'le': u'0.41', u'bei': u'18.12', u'sei': u'3.58', u'lle': u'6.28'}

>  <standard_flag>  (573) 
True

>  <molecule_chembl_id>  (573) 
CHEMBL3415383

>  <target_organism>  (573) 
Homo sapiens

>  <standard_units>  (573) 
nM

>  <record_id>  (573) 
2290953

>  <document_chembl_id>  (573) 
CHEMBL3414464

>  <bao_format>  (573) 
BAO_0000357

>  <data_validity_description>  (573) 
None

>  <activity_id>  (573) 
15212958

>  <standard_type>  (573) 
IC50

>  <target_chembl_id>  (573) 
CHEMBL205

>  <data_validity_comment>  (573) 
None

>  <published_value>  (573) 
31

>  <document_year>  (573) 
2015

>  <target_pref_name>  (573) 
Carbonic anhydrase II

>  <assay_chembl_id>  (573) 
CHEMBL3419422

>  <standard_relation>  (573) 
=

>  <assay_description>  (573) 
Inhibition of human carbonic anhydrase 2 assessed as reduction in enzyme activity incubated for 30 mins by fluorescence polarization assay

>  <published_relation>  (573) 
=

>  <standard_value>  (573) 
31

>  <qudt_units>  (573) 
http://www.openphacts.org/units/Nanomolar

>  <target_tax_id>  (573) 
9606

>  <bao_label>  (573) 
single protein format

>  <published_units>  (573) 
nM

>  <pchembl_value>  (573) 
7.51

>  <published_type>  (573) 
IC50

>  <activity_comment>  (573) 
None

$$$$

     RDKit          

 22 23  0  0  0  0  0  0  0  0999 V2000
    0.0000    0.0000    0.0000 C   0  0  0  0  0  0  0  0  0  0  0  0
    0.0000    0.0000    0.0000 C   0  0  0  0  0  0  0  0  0  0  0  0
    0.0000    0.0000    0.0000 N   0  0  0  0  0  0  0  0  0  0  0  0
    0.0000    0.0000    0.0000 C   0  0  0  0  0  0  0  0  0  0  0  0
    0.0000    0.0000    0.0000 C   0  0  0  0  0  0  0  0  0  0  0  0
    0.0000    0.0000    0.0000 C   0  0  0  0  0  0  0  0  0  0  0  0
    0.0000    0.0000    0.0000 C   0  0  0  0  0  0  0  0  0  0  0  0
    0.0000    0.0000    0.0000 C   0  0  0  0  0  0  0  0  0  0  0  0
    0.0000    0.0000    0.0000 C   0  0  0  0  0  0  0  0  0  0  0  0
    0.0000    0.0000    0.0000 O   0  0  0  0  0  0  0  0  0  0  0  0
    0.0000    0.0000    0.0000 S   0  0  0  0  0  0  0  0  0  0  0  0
    0.0000    0.0000    0.0000 O   0  0  0  0  0  0  0  0  0  0  0  0
    0.0000    0.0000    0.0000 O   0  0  0  0  0  0  0  0  0  0  0  0
    0.0000    0.0000    0.0000 C   0  0  0  0  0  0  0  0  0  0  0  0
    0.0000    0.0000    0.0000 S   0  0  0  0  0  0  0  0  0  0  0  0
    0.0000    0.0000    0.0000 C   0  0  0  0  0  0  0  0  0  0  0  0
    0.0000    0.0000    0.0000 C   0  0  0  0  0  0  0  0  0  0  0  0
    0.0000    0.0000    0.0000 C   0  0  0  0  0  0  0  0  0  0  0  0
    0.0000    0.0000    0.0000 S   0  0  0  0  0  0  0  0  0  0  0  0
    0.0000    0.0000    0.0000 O   0  0  0  0  0  0  0  0  0  0  0  0
    0.0000    0.0000    0.0000 O   0  0  0  0  0  0  0  0  0  0  0  0
    0.0000    0.0000    0.0000 N   0  0  0  0  0  0  0  0  0  0  0  0
  1  2  1  0
  2  3  1  0
  3  4  1  0
  4  5  1  0
  5  6  1  0
  6  7  1  0
  7  8  1  0
  8  9  1  0
  9 10  1  0
  6 11  1  0
 11 12  2  0
 11 13  2  0
 11 14  1  0
 14 15  1  0
 15 16  1  0
 16 17  2  0
 17 18  1  0
 16 19  1  0
 19 20  2  0
 19 21  2  0
 19 22  1  0
 18  4  1  0
 18 14  2  0
M  END
>  <pIC50>  (574) 
7.09

>  <ChEMBL_ID>  (574) 
CHEMBL3415382

>  <document_journal>  (574) 
J. Med. Chem.

>  <bao_endpoint>  (574) 
BAO_0000190

>  <potential_duplicate>  (574) 
False

>  <uo_units>  (574) 
UO_0000065

>  <canonical_smiles>  (574) 
CCN[C@H]1C[C@H](CCCO)S(=O)(=O)c2sc(cc12)S(=O)(=O)N

>  <parent_molecule_chembl_id>  (574) 
CHEMBL3415382

>  <assay_type>  (574) 
B

>  <src_id>  (574) 
1

>  <ligand_efficiency>  (574) 
{u'le': u'0.44', u'bei': u'19.23', u'sei': u'4.13', u'lle': u'7.19'}

>  <standard_flag>  (574) 
True

>  <molecule_chembl_id>  (574) 
CHEMBL3415382

>  <target_organism>  (574) 
Homo sapiens

>  <standard_units>  (574) 
nM

>  <record_id>  (574) 
2290951

>  <document_chembl_id>  (574) 
CHEMBL3414464

>  <bao_format>  (574) 
BAO_0000357

>  <data_validity_description>  (574) 
None

>  <activity_id>  (574) 
15212960

>  <standard_type>  (574) 
IC50

>  <target_chembl_id>  (574) 
CHEMBL205

>  <data_validity_comment>  (574) 
None

>  <published_value>  (574) 
82

>  <document_year>  (574) 
2015

>  <target_pref_name>  (574) 
Carbonic anhydrase II

>  <assay_chembl_id>  (574) 
CHEMBL3419422

>  <standard_relation>  (574) 
=

>  <assay_description>  (574) 
Inhibition of human carbonic anhydrase 2 assessed as reduction in enzyme activity incubated for 30 mins by fluorescence polarization assay

>  <published_relation>  (574) 
=

>  <standard_value>  (574) 
82

>  <qudt_units>  (574) 
http://www.openphacts.org/units/Nanomolar

>  <target_tax_id>  (574) 
9606

>  <bao_label>  (574) 
single protein format

>  <published_units>  (574) 
nM

>  <pchembl_value>  (574) 
7.09

>  <published_type>  (574) 
IC50

>  <activity_comment>  (574) 
None

$$$$

     RDKit          

 23 24  0  0  0  0  0  0  0  0999 V2000
    0.0000    0.0000    0.0000 C   0  0  0  0  0  0  0  0  0  0  0  0
    0.0000    0.0000    0.0000 C   0  0  0  0  0  0  0  0  0  0  0  0
    0.0000    0.0000    0.0000 N   0  0  0  0  0  0  0  0  0  0  0  0
    0.0000    0.0000    0.0000 C   0  0  0  0  0  0  0  0  0  0  0  0
    0.0000    0.0000    0.0000 C   0  0  0  0  0  0  0  0  0  0  0  0
    0.0000    0.0000    0.0000 C   0  0  0  0  0  0  0  0  0  0  0  0
    0.0000    0.0000    0.0000 C   0  0  0  0  0  0  0  0  0  0  0  0
    0.0000    0.0000    0.0000 O   0  0  0  0  0  0  0  0  0  0  0  0
    0.0000    0.0000    0.0000 N   0  0  0  0  0  0  0  0  0  0  0  0
    0.0000    0.0000    0.0000 O   0  0  0  0  0  0  0  0  0  0  0  0
    0.0000    0.0000    0.0000 O   0  0  0  0  0  0  0  0  0  0  0  0
    0.0000    0.0000    0.0000 S   0  0  0  0  0  0  0  0  0  0  0  0
    0.0000    0.0000    0.0000 O   0  0  0  0  0  0  0  0  0  0  0  0
    0.0000    0.0000    0.0000 O   0  0  0  0  0  0  0  0  0  0  0  0
    0.0000    0.0000    0.0000 C   0  0  0  0  0  0  0  0  0  0  0  0
    0.0000    0.0000    0.0000 S   0  0  0  0  0  0  0  0  0  0  0  0
    0.0000    0.0000    0.0000 C   0  0  0  0  0  0  0  0  0  0  0  0
    0.0000    0.0000    0.0000 C   0  0  0  0  0  0  0  0  0  0  0  0
    0.0000    0.0000    0.0000 C   0  0  0  0  0  0  0  0  0  0  0  0
    0.0000    0.0000    0.0000 S   0  0  0  0  0  0  0  0  0  0  0  0
    0.0000    0.0000    0.0000 O   0  0  0  0  0  0  0  0  0  0  0  0
    0.0000    0.0000    0.0000 O   0  0  0  0  0  0  0  0  0  0  0  0
    0.0000    0.0000    0.0000 N   0  0  0  0  0  0  0  0  0  0  0  0
  1  2  1  0
  2  3  1  0
  3  4  1  0
  4  5  1  0
  5  6  1  0
  6  7  1  0
  7  8  1  0
  8  9  1  0
  9 10  2  0
  9 11  1  0
  6 12  1  0
 12 13  2  0
 12 14  2  0
 12 15  1  0
 15 16  1  0
 16 17  1  0
 17 18  2  0
 18 19  1  0
 17 20  1  0
 20 21  2  0
 20 22  2  0
 20 23  1  0
 19  4  1  0
 19 15  2  0
M  CHG  2   9   1  11  -1
M  END
>  <pIC50>  (575) 
6.81

>  <ChEMBL_ID>  (575) 
CHEMBL3415381

>  <document_journal>  (575) 
J. Med. Chem.

>  <bao_endpoint>  (575) 
BAO_0000190

>  <potential_duplicate>  (575) 
False

>  <uo_units>  (575) 
UO_0000065

>  <canonical_smiles>  (575) 
CCN[C@H]1C[C@H](CO[N+](=O)[O-])S(=O)(=O)c2sc(cc12)S(=O)(=O)N

>  <parent_molecule_chembl_id>  (575) 
CHEMBL3415381

>  <assay_type>  (575) 
B

>  <src_id>  (575) 
1

>  <ligand_efficiency>  (575) 
{u'le': u'0.4', u'bei': u'17.66', u'sei': u'3.3', u'lle': u'5.14'}

>  <standard_flag>  (575) 
True

>  <molecule_chembl_id>  (575) 
CHEMBL3415381

>  <target_organism>  (575) 
Homo sapiens

>  <standard_units>  (575) 
nM

>  <record_id>  (575) 
2290950

>  <document_chembl_id>  (575) 
CHEMBL3414464

>  <bao_format>  (575) 
BAO_0000357

>  <data_validity_description>  (575) 
None

>  <activity_id>  (575) 
15212961

>  <standard_type>  (575) 
IC50

>  <target_chembl_id>  (575) 
CHEMBL205

>  <data_validity_comment>  (575) 
None

>  <published_value>  (575) 
156

>  <document_year>  (575) 
2015

>  <target_pref_name>  (575) 
Carbonic anhydrase II

>  <assay_chembl_id>  (575) 
CHEMBL3419422

>  <standard_relation>  (575) 
=

>  <assay_description>  (575) 
Inhibition of human carbonic anhydrase 2 assessed as reduction in enzyme activity incubated for 30 mins by fluorescence polarization assay

>  <published_relation>  (575) 
=

>  <standard_value>  (575) 
156

>  <qudt_units>  (575) 
http://www.openphacts.org/units/Nanomolar

>  <target_tax_id>  (575) 
9606

>  <bao_label>  (575) 
single protein format

>  <published_units>  (575) 
nM

>  <pchembl_value>  (575) 
6.81

>  <published_type>  (575) 
IC50

>  <activity_comment>  (575) 
None

$$$$

     RDKit          

 24 25  0  0  0  0  0  0  0  0999 V2000
    0.0000    0.0000    0.0000 C   0  0  0  0  0  0  0  0  0  0  0  0
    0.0000    0.0000    0.0000 C   0  0  0  0  0  0  0  0  0  0  0  0
    0.0000    0.0000    0.0000 N   0  0  0  0  0  0  0  0  0  0  0  0
    0.0000    0.0000    0.0000 C   0  0  0  0  0  0  0  0  0  0  0  0
    0.0000    0.0000    0.0000 C   0  0  0  0  0  0  0  0  0  0  0  0
    0.0000    0.0000    0.0000 C   0  0  0  0  0  0  0  0  0  0  0  0
    0.0000    0.0000    0.0000 C   0  0  0  0  0  0  0  0  0  0  0  0
    0.0000    0.0000    0.0000 C   0  0  0  0  0  0  0  0  0  0  0  0
    0.0000    0.0000    0.0000 O   0  0  0  0  0  0  0  0  0  0  0  0
    0.0000    0.0000    0.0000 N   0  0  0  0  0  0  0  0  0  0  0  0
    0.0000    0.0000    0.0000 O   0  0  0  0  0  0  0  0  0  0  0  0
    0.0000    0.0000    0.0000 O   0  0  0  0  0  0  0  0  0  0  0  0
    0.0000    0.0000    0.0000 S   0  0  0  0  0  0  0  0  0  0  0  0
    0.0000    0.0000    0.0000 O   0  0  0  0  0  0  0  0  0  0  0  0
    0.0000    0.0000    0.0000 O   0  0  0  0  0  0  0  0  0  0  0  0
    0.0000    0.0000    0.0000 C   0  0  0  0  0  0  0  0  0  0  0  0
    0.0000    0.0000    0.0000 S   0  0  0  0  0  0  0  0  0  0  0  0
    0.0000    0.0000    0.0000 C   0  0  0  0  0  0  0  0  0  0  0  0
    0.0000    0.0000    0.0000 C   0  0  0  0  0  0  0  0  0  0  0  0
    0.0000    0.0000    0.0000 C   0  0  0  0  0  0  0  0  0  0  0  0
    0.0000    0.0000    0.0000 S   0  0  0  0  0  0  0  0  0  0  0  0
    0.0000    0.0000    0.0000 O   0  0  0  0  0  0  0  0  0  0  0  0
    0.0000    0.0000    0.0000 O   0  0  0  0  0  0  0  0  0  0  0  0
    0.0000    0.0000    0.0000 N   0  0  0  0  0  0  0  0  0  0  0  0
  1  2  1  0
  2  3  1  0
  3  4  1  0
  4  5  1  0
  5  6  1  0
  6  7  1  0
  7  8  1  0
  8  9  1  0
  9 10  1  0
 10 11  2  0
 10 12  1  0
  6 13  1  0
 13 14  2  0
 13 15  2  0
 13 16  1  0
 16 17  1  0
 17 18  1  0
 18 19  2  0
 19 20  1  0
 18 21  1  0
 21 22  2  0
 21 23  2  0
 21 24  1  0
 20  4  1  0
 20 16  2  0
M  CHG  2  10   1  12  -1
M  END
>  <pIC50>  (576) 
7.33

>  <ChEMBL_ID>  (576) 
CHEMBL3415380

>  <document_journal>  (576) 
J. Med. Chem.

>  <bao_endpoint>  (576) 
BAO_0000190

>  <potential_duplicate>  (576) 
False

>  <uo_units>  (576) 
UO_0000065

>  <canonical_smiles>  (576) 
CCN[C@H]1C[C@H](CCO[N+](=O)[O-])S(=O)(=O)c2sc(cc12)S(=O)(=O)N

>  <parent_molecule_chembl_id>  (576) 
CHEMBL3415380

>  <assay_type>  (576) 
B

>  <src_id>  (576) 
1

>  <ligand_efficiency>  (576) 
{u'le': u'0.42', u'bei': u'18.34', u'sei': u'3.55', u'lle': u'5.6'}

>  <standard_flag>  (576) 
True

>  <molecule_chembl_id>  (576) 
CHEMBL3415380

>  <target_organism>  (576) 
Homo sapiens

>  <standard_units>  (576) 
nM

>  <record_id>  (576) 
2290949

>  <document_chembl_id>  (576) 
CHEMBL3414464

>  <bao_format>  (576) 
BAO_0000357

>  <data_validity_description>  (576) 
None

>  <activity_id>  (576) 
15212962

>  <standard_type>  (576) 
IC50

>  <target_chembl_id>  (576) 
CHEMBL205

>  <data_validity_comment>  (576) 
None

>  <published_value>  (576) 
47

>  <document_year>  (576) 
2015

>  <target_pref_name>  (576) 
Carbonic anhydrase II

>  <assay_chembl_id>  (576) 
CHEMBL3419422

>  <standard_relation>  (576) 
=

>  <assay_description>  (576) 
Inhibition of human carbonic anhydrase 2 assessed as reduction in enzyme activity incubated for 30 mins by fluorescence polarization assay

>  <published_relation>  (576) 
=

>  <standard_value>  (576) 
47

>  <qudt_units>  (576) 
http://www.openphacts.org/units/Nanomolar

>  <target_tax_id>  (576) 
9606

>  <bao_label>  (576) 
single protein format

>  <published_units>  (576) 
nM

>  <pchembl_value>  (576) 
7.33

>  <published_type>  (576) 
IC50

>  <activity_comment>  (576) 
None

$$$$

     RDKit          

 25 26  0  0  0  0  0  0  0  0999 V2000
    0.0000    0.0000    0.0000 C   0  0  0  0  0  0  0  0  0  0  0  0
    0.0000    0.0000    0.0000 C   0  0  0  0  0  0  0  0  0  0  0  0
    0.0000    0.0000    0.0000 N   0  0  0  0  0  0  0  0  0  0  0  0
    0.0000    0.0000    0.0000 C   0  0  0  0  0  0  0  0  0  0  0  0
    0.0000    0.0000    0.0000 C   0  0  0  0  0  0  0  0  0  0  0  0
    0.0000    0.0000    0.0000 C   0  0  0  0  0  0  0  0  0  0  0  0
    0.0000    0.0000    0.0000 C   0  0  0  0  0  0  0  0  0  0  0  0
    0.0000    0.0000    0.0000 C   0  0  0  0  0  0  0  0  0  0  0  0
    0.0000    0.0000    0.0000 C   0  0  0  0  0  0  0  0  0  0  0  0
    0.0000    0.0000    0.0000 O   0  0  0  0  0  0  0  0  0  0  0  0
    0.0000    0.0000    0.0000 N   0  0  0  0  0  0  0  0  0  0  0  0
    0.0000    0.0000    0.0000 O   0  0  0  0  0  0  0  0  0  0  0  0
    0.0000    0.0000    0.0000 O   0  0  0  0  0  0  0  0  0  0  0  0
    0.0000    0.0000    0.0000 S   0  0  0  0  0  0  0  0  0  0  0  0
    0.0000    0.0000    0.0000 O   0  0  0  0  0  0  0  0  0  0  0  0
    0.0000    0.0000    0.0000 O   0  0  0  0  0  0  0  0  0  0  0  0
    0.0000    0.0000    0.0000 C   0  0  0  0  0  0  0  0  0  0  0  0
    0.0000    0.0000    0.0000 S   0  0  0  0  0  0  0  0  0  0  0  0
    0.0000    0.0000    0.0000 C   0  0  0  0  0  0  0  0  0  0  0  0
    0.0000    0.0000    0.0000 C   0  0  0  0  0  0  0  0  0  0  0  0
    0.0000    0.0000    0.0000 C   0  0  0  0  0  0  0  0  0  0  0  0
    0.0000    0.0000    0.0000 S   0  0  0  0  0  0  0  0  0  0  0  0
    0.0000    0.0000    0.0000 O   0  0  0  0  0  0  0  0  0  0  0  0
    0.0000    0.0000    0.0000 O   0  0  0  0  0  0  0  0  0  0  0  0
    0.0000    0.0000    0.0000 N   0  0  0  0  0  0  0  0  0  0  0  0
  1  2  1  0
  2  3  1  0
  3  4  1  0
  4  5  1  0
  5  6  1  0
  6  7  1  0
  7  8  1  0
  8  9  1  0
  9 10  1  0
 10 11  1  0
 11 12  2  0
 11 13  1  0
  6 14  1  0
 14 15  2  0
 14 16  2  0
 14 17  1  0
 17 18  1  0
 18 19  1  0
 19 20  2  0
 20 21  1  0
 19 22  1  0
 22 23  2  0
 22 24  2  0
 22 25  1  0
 21  4  1  0
 21 17  2  0
M  CHG  2  11   1  13  -1
M  END
>  <pIC50>  (577) 
7.51

>  <ChEMBL_ID>  (577) 
CHEMBL3415379

>  <document_journal>  (577) 
J. Med. Chem.

>  <bao_endpoint>  (577) 
BAO_0000190

>  <potential_duplicate>  (577) 
False

>  <uo_units>  (577) 
UO_0000065

>  <canonical_smiles>  (577) 
CCN[C@H]1C[C@H](CCCO[N+](=O)[O-])S(=O)(=O)c2sc(cc12)S(=O)(=O)N

>  <parent_molecule_chembl_id>  (577) 
CHEMBL3415379

>  <assay_type>  (577) 
B

>  <src_id>  (577) 
1

>  <ligand_efficiency>  (577) 
{u'le': u'0.41', u'bei': u'18.16', u'sei': u'3.64', u'lle': u'5.2'}

>  <standard_flag>  (577) 
True

>  <molecule_chembl_id>  (577) 
CHEMBL3415379

>  <target_organism>  (577) 
Homo sapiens

>  <standard_units>  (577) 
nM

>  <record_id>  (577) 
2290948

>  <document_chembl_id>  (577) 
CHEMBL3414464

>  <bao_format>  (577) 
BAO_0000357

>  <data_validity_description>  (577) 
None

>  <activity_id>  (577) 
15212963

>  <standard_type>  (577) 
IC50

>  <target_chembl_id>  (577) 
CHEMBL205

>  <data_validity_comment>  (577) 
None

>  <published_value>  (577) 
31

>  <document_year>  (577) 
2015

>  <target_pref_name>  (577) 
Carbonic anhydrase II

>  <assay_chembl_id>  (577) 
CHEMBL3419422

>  <standard_relation>  (577) 
=

>  <assay_description>  (577) 
Inhibition of human carbonic anhydrase 2 assessed as reduction in enzyme activity incubated for 30 mins by fluorescence polarization assay

>  <published_relation>  (577) 
=

>  <standard_value>  (577) 
31

>  <qudt_units>  (577) 
http://www.openphacts.org/units/Nanomolar

>  <target_tax_id>  (577) 
9606

>  <bao_label>  (577) 
single protein format

>  <published_units>  (577) 
nM

>  <pchembl_value>  (577) 
7.51

>  <published_type>  (577) 
IC50

>  <activity_comment>  (577) 
None

$$$$

     RDKit          

 22 23  0  0  0  0  0  0  0  0999 V2000
    0.0000    0.0000    0.0000 S   0  0  0  0  0  0  0  0  0  0  0  0
    0.0000    0.0000    0.0000 O   0  0  0  0  0  0  0  0  0  0  0  0
    0.0000    0.0000    0.0000 C   0  0  0  0  0  0  0  0  0  0  0  0
    0.0000    0.0000    0.0000 N   0  0  0  0  0  0  0  0  0  0  0  0
    0.0000    0.0000    0.0000 C   0  0  0  0  0  0  0  0  0  0  0  0
    0.0000    0.0000    0.0000 C   0  0  0  0  0  0  0  0  0  0  0  0
    0.0000    0.0000    0.0000 C   0  0  0  0  0  0  0  0  0  0  0  0
    0.0000    0.0000    0.0000 C   0  0  0  0  0  0  0  0  0  0  0  0
    0.0000    0.0000    0.0000 C   0  0  0  0  0  0  0  0  0  0  0  0
    0.0000    0.0000    0.0000 N   0  0  0  0  0  0  0  0  0  0  0  0
    0.0000    0.0000    0.0000 C   0  0  0  0  0  0  0  0  0  0  0  0
    0.0000    0.0000    0.0000 N   0  0  0  0  0  0  0  0  0  0  0  0
    0.0000    0.0000    0.0000 N   0  0  0  0  0  0  0  0  0  0  0  0
    0.0000    0.0000    0.0000 C   0  0  0  0  0  0  0  0  0  0  0  0
    0.0000    0.0000    0.0000 C   0  0  0  0  0  0  0  0  0  0  0  0
    0.0000    0.0000    0.0000 N   0  0  0  0  0  0  0  0  0  0  0  0
    0.0000    0.0000    0.0000 C   0  0  0  0  0  0  0  0  0  0  0  0
    0.0000    0.0000    0.0000 C   0  0  0  0  0  0  0  0  0  0  0  0
    0.0000    0.0000    0.0000 Br  0  0  0  0  0  0  0  0  0  0  0  0
    0.0000    0.0000    0.0000 C   0  0  0  0  0  0  0  0  0  0  0  0
    0.0000    0.0000    0.0000 C   0  0  0  0  0  0  0  0  0  0  0  0
    0.0000    0.0000    0.0000 O   0  0  0  0  0  0  0  0  0  0  0  0
  1  2  1  0
  1  3  1  0
  1  4  1  0
  5  3  2  0
  3  6  1  0
  7  5  1  0
  6  8  2  0
  9  7  2  0
  8  9  1  0
 10  9  1  0
 11 10  1  0
 12 11  2  0
 11 13  1  0
 14 12  1  0
 13 15  2  0
 16 14  1  0
 17 14  2  0
 15 17  1  0
 18 16  1  0
 17 19  1  0
 20 18  1  0
 18 21  1  0
 21 22  1  0
M  CHG  2   1   1   2  -1
M  END
>  <pIC50>  (578) 
6.29

>  <ChEMBL_ID>  (578) 
CHEMBL3604466

>  <document_journal>  (578) 
Bioorg. Med. Chem. Lett.

>  <bao_endpoint>  (578) 
BAO_0000190

>  <potential_duplicate>  (578) 
False

>  <uo_units>  (578) 
UO_0000065

>  <canonical_smiles>  (578) 
C[C@H](CO)Nc1nc(Nc2ccc(cc2)S(=O)N)ncc1Br

>  <parent_molecule_chembl_id>  (578) 
CHEMBL3604466

>  <assay_type>  (578) 
B

>  <src_id>  (578) 
1

>  <ligand_efficiency>  (578) 
{u'le': u'0.39', u'bei': u'16.28', u'sei': u'4.75', u'lle': u'4.13'}

>  <standard_flag>  (578) 
True

>  <molecule_chembl_id>  (578) 
CHEMBL3604466

>  <target_organism>  (578) 
Homo sapiens

>  <standard_units>  (578) 
nM

>  <record_id>  (578) 
2494408

>  <document_chembl_id>  (578) 
CHEMBL3603804

>  <bao_format>  (578) 
BAO_0000357

>  <data_validity_description>  (578) 
None

>  <activity_id>  (578) 
15678974

>  <standard_type>  (578) 
IC50

>  <target_chembl_id>  (578) 
CHEMBL205

>  <data_validity_comment>  (578) 
None

>  <published_value>  (578) 
514

>  <document_year>  (578) 
2015

>  <target_pref_name>  (578) 
Carbonic anhydrase II

>  <assay_chembl_id>  (578) 
CHEMBL3607093

>  <standard_relation>  (578) 
=

>  <assay_description>  (578) 
Inhibition of carbonic anhydrase-2 (unknown origin)

>  <published_relation>  (578) 
=

>  <standard_value>  (578) 
514

>  <qudt_units>  (578) 
http://www.openphacts.org/units/Nanomolar

>  <target_tax_id>  (578) 
9606

>  <bao_label>  (578) 
single protein format

>  <published_units>  (578) 
nM

>  <pchembl_value>  (578) 
6.29

>  <published_type>  (578) 
IC50

>  <activity_comment>  (578) 
None

$$$$

     RDKit          

 23 24  0  0  0  0  0  0  0  0999 V2000
    0.0000    0.0000    0.0000 S   0  0  0  0  0  0  0  0  0  0  0  0
    0.0000    0.0000    0.0000 O   0  0  0  0  0  0  0  0  0  0  0  0
    0.0000    0.0000    0.0000 C   0  0  0  0  0  0  0  0  0  0  0  0
    0.0000    0.0000    0.0000 N   0  0  0  0  0  0  0  0  0  0  0  0
    0.0000    0.0000    0.0000 C   0  0  0  0  0  0  0  0  0  0  0  0
    0.0000    0.0000    0.0000 C   0  0  0  0  0  0  0  0  0  0  0  0
    0.0000    0.0000    0.0000 C   0  0  0  0  0  0  0  0  0  0  0  0
    0.0000    0.0000    0.0000 C   0  0  0  0  0  0  0  0  0  0  0  0
    0.0000    0.0000    0.0000 C   0  0  0  0  0  0  0  0  0  0  0  0
    0.0000    0.0000    0.0000 N   0  0  0  0  0  0  0  0  0  0  0  0
    0.0000    0.0000    0.0000 C   0  0  0  0  0  0  0  0  0  0  0  0
    0.0000    0.0000    0.0000 N   0  0  0  0  0  0  0  0  0  0  0  0
    0.0000    0.0000    0.0000 N   0  0  0  0  0  0  0  0  0  0  0  0
    0.0000    0.0000    0.0000 C   0  0  0  0  0  0  0  0  0  0  0  0
    0.0000    0.0000    0.0000 C   0  0  0  0  0  0  0  0  0  0  0  0
    0.0000    0.0000    0.0000 N   0  0  0  0  0  0  0  0  0  0  0  0
    0.0000    0.0000    0.0000 C   0  0  0  0  0  0  0  0  0  0  0  0
    0.0000    0.0000    0.0000 C   0  0  0  0  0  0  0  0  0  0  0  0
    0.0000    0.0000    0.0000 Br  0  0  0  0  0  0  0  0  0  0  0  0
    0.0000    0.0000    0.0000 C   0  0  0  0  0  0  0  0  0  0  0  0
    0.0000    0.0000    0.0000 C   0  0  0  0  0  0  0  0  0  0  0  0
    0.0000    0.0000    0.0000 C   0  0  0  0  0  0  0  0  0  0  0  0
    0.0000    0.0000    0.0000 O   0  0  0  0  0  0  0  0  0  0  0  0
  1  2  1  0
  1  3  1  0
  1  4  1  0
  5  3  2  0
  3  6  1  0
  7  5  1  0
  6  8  2  0
  9  7  2  0
  8  9  1  0
 10  9  1  0
 11 10  1  0
 12 11  2  0
 11 13  1  0
 14 12  1  0
 13 15  2  0
 16 14  1  0
 17 14  2  0
 15 17  1  0
 18 16  1  0
 17 19  1  0
 20 18  1  0
 18 21  1  0
 22 20  1  0
 20 23  1  0
M  CHG  2   1   1   2  -1
M  END
>  <pIC50>  (579) 
6.4

>  <ChEMBL_ID>  (579) 
CHEMBL3604467

>  <document_journal>  (579) 
Bioorg. Med. Chem. Lett.

>  <bao_endpoint>  (579) 
BAO_0000190

>  <potential_duplicate>  (579) 
False

>  <uo_units>  (579) 
UO_0000065

>  <canonical_smiles>  (579) 
C[C@@H](O)[C@@H](C)Nc1nc(Nc2ccc(cc2)S(=O)N)ncc1Br

>  <parent_molecule_chembl_id>  (579) 
CHEMBL3604467

>  <assay_type>  (579) 
B

>  <src_id>  (579) 
1

>  <ligand_efficiency>  (579) 
{u'le': u'0.38', u'bei': u'15.98', u'sei': u'4.83', u'lle': u'3.85'}

>  <standard_flag>  (579) 
True

>  <molecule_chembl_id>  (579) 
CHEMBL3604467

>  <target_organism>  (579) 
Homo sapiens

>  <standard_units>  (579) 
nM

>  <record_id>  (579) 
2494409

>  <document_chembl_id>  (579) 
CHEMBL3603804

>  <bao_format>  (579) 
BAO_0000357

>  <data_validity_description>  (579) 
None

>  <activity_id>  (579) 
15678979

>  <standard_type>  (579) 
IC50

>  <target_chembl_id>  (579) 
CHEMBL205

>  <data_validity_comment>  (579) 
None

>  <published_value>  (579) 
403

>  <document_year>  (579) 
2015

>  <target_pref_name>  (579) 
Carbonic anhydrase II

>  <assay_chembl_id>  (579) 
CHEMBL3607093

>  <standard_relation>  (579) 
=

>  <assay_description>  (579) 
Inhibition of carbonic anhydrase-2 (unknown origin)

>  <published_relation>  (579) 
=

>  <standard_value>  (579) 
403

>  <qudt_units>  (579) 
http://www.openphacts.org/units/Nanomolar

>  <target_tax_id>  (579) 
9606

>  <bao_label>  (579) 
single protein format

>  <published_units>  (579) 
nM

>  <pchembl_value>  (579) 
6.4

>  <published_type>  (579) 
IC50

>  <activity_comment>  (579) 
None

$$$$

     RDKit          

 21 23  0  0  0  0  0  0  0  0999 V2000
    0.0000    0.0000    0.0000 N   0  0  0  0  0  0  0  0  0  0  0  0
    0.0000    0.0000    0.0000 S   0  0  0  0  0  0  0  0  0  0  0  0
    0.0000    0.0000    0.0000 O   0  0  0  0  0  0  0  0  0  0  0  0
    0.0000    0.0000    0.0000 O   0  0  0  0  0  0  0  0  0  0  0  0
    0.0000    0.0000    0.0000 O   0  0  0  0  0  0  0  0  0  0  0  0
    0.0000    0.0000    0.0000 C   0  0  0  0  0  0  0  0  0  0  0  0
    0.0000    0.0000    0.0000 C   0  0  0  0  0  0  0  0  0  0  0  0
    0.0000    0.0000    0.0000 C   0  0  0  0  0  0  0  0  0  0  0  0
    0.0000    0.0000    0.0000 C   0  0  0  0  0  0  0  0  0  0  0  0
    0.0000    0.0000    0.0000 C   0  0  0  0  0  0  0  0  0  0  0  0
    0.0000    0.0000    0.0000 C   0  0  0  0  0  0  0  0  0  0  0  0
    0.0000    0.0000    0.0000 C   0  0  0  0  0  0  0  0  0  0  0  0
    0.0000    0.0000    0.0000 C   0  0  0  0  0  0  0  0  0  0  0  0
    0.0000    0.0000    0.0000 C   0  0  0  0  0  0  0  0  0  0  0  0
    0.0000    0.0000    0.0000 C   0  0  0  0  0  0  0  0  0  0  0  0
    0.0000    0.0000    0.0000 C   0  0  0  0  0  0  0  0  0  0  0  0
    0.0000    0.0000    0.0000 C   0  0  0  0  0  0  0  0  0  0  0  0
    0.0000    0.0000    0.0000 O   0  0  0  0  0  0  0  0  0  0  0  0
    0.0000    0.0000    0.0000 O   0  0  0  0  0  0  0  0  0  0  0  0
    0.0000    0.0000    0.0000 C   0  0  0  0  0  0  0  0  0  0  0  0
    0.0000    0.0000    0.0000 C   0  0  0  0  0  0  0  0  0  0  0  0
  1  2  1  0
  2  3  2  0
  2  4  2  0
  2  5  1  0
  5  6  1  0
  6  7  2  0
  7  8  1  0
  8  9  2  0
  9 10  1  0
 10 11  1  0
 11 12  1  0
 12 13  1  0
 13 14  1  0
 14 15  1  0
 15 16  1  0
 16 17  1  0
 17 18  2  0
 17 19  1  0
 19 20  1  0
 20 21  2  0
 21  6  1  0
 20  9  1  0
 16 10  1  0
M  END
>  <pIC50>  (580) 
7.66

>  <ChEMBL_ID>  (580) 
CHEMBL3098847

>  <document_journal>  (580) 
J. Med. Chem.

>  <bao_endpoint>  (580) 
BAO_0000190

>  <potential_duplicate>  (580) 
False

>  <uo_units>  (580) 
UO_0000065

>  <canonical_smiles>  (580) 
NS(=O)(=O)Oc1ccc2C3CCCCCC3C(=O)Oc2c1

>  <parent_molecule_chembl_id>  (580) 
CHEMBL3098847

>  <assay_type>  (580) 
B

>  <src_id>  (580) 
1

>  <ligand_efficiency>  (580) 
{u'le': u'0.5', u'bei': u'24.59', u'sei': u'7.36', u'lle': u'5.29'}

>  <standard_flag>  (580) 
True

>  <molecule_chembl_id>  (580) 
CHEMBL3098847

>  <target_organism>  (580) 
Homo sapiens

>  <standard_units>  (580) 
nM

>  <record_id>  (580) 
2504247

>  <document_chembl_id>  (580) 
CHEMBL3621110

>  <bao_format>  (580) 
BAO_0000357

>  <data_validity_description>  (580) 
None

>  <activity_id>  (580) 
15741875

>  <standard_type>  (580) 
IC50

>  <target_chembl_id>  (580) 
CHEMBL205

>  <data_validity_comment>  (580) 
None

>  <published_value>  (580) 
22

>  <document_year>  (580) 
2015

>  <target_pref_name>  (580) 
Carbonic anhydrase II

>  <assay_chembl_id>  (580) 
CHEMBL3627248

>  <standard_relation>  (580) 
=

>  <assay_description>  (580) 
Inhibition of human carbonic anhydrase 2

>  <published_relation>  (580) 
=

>  <standard_value>  (580) 
22

>  <qudt_units>  (580) 
http://www.openphacts.org/units/Nanomolar

>  <target_tax_id>  (580) 
9606

>  <bao_label>  (580) 
single protein format

>  <published_units>  (580) 
nM

>  <pchembl_value>  (580) 
7.66

>  <published_type>  (580) 
IC50

>  <activity_comment>  (580) 
None

$$$$

     RDKit          

 31 33  0  0  0  0  0  0  0  0999 V2000
    0.0000    0.0000    0.0000 N   0  0  0  0  0  0  0  0  0  0  0  0
    0.0000    0.0000    0.0000 C   0  0  0  0  0  0  0  0  0  0  0  0
    0.0000    0.0000    0.0000 O   0  0  0  0  0  0  0  0  0  0  0  0
    0.0000    0.0000    0.0000 C   0  0  0  0  0  0  0  0  0  0  0  0
    0.0000    0.0000    0.0000 C   0  0  0  0  0  0  0  0  0  0  0  0
    0.0000    0.0000    0.0000 N   0  0  0  0  0  0  0  0  0  0  0  0
    0.0000    0.0000    0.0000 C   0  0  0  0  0  0  0  0  0  0  0  0
    0.0000    0.0000    0.0000 C   0  0  0  0  0  0  0  0  0  0  0  0
    0.0000    0.0000    0.0000 C   0  0  0  0  0  0  0  0  0  0  0  0
    0.0000    0.0000    0.0000 C   0  0  0  0  0  0  0  0  0  0  0  0
    0.0000    0.0000    0.0000 I   0  0  0  0  0  0  0  0  0  0  0  0
    0.0000    0.0000    0.0000 C   0  0  0  0  0  0  0  0  0  0  0  0
    0.0000    0.0000    0.0000 C   0  0  0  0  0  0  0  0  0  0  0  0
    0.0000    0.0000    0.0000 F   0  0  0  0  0  0  0  0  0  0  0  0
    0.0000    0.0000    0.0000 C   0  0  0  0  0  0  0  0  0  0  0  0
    0.0000    0.0000    0.0000 C   0  0  0  0  0  0  0  0  0  0  0  0
    0.0000    0.0000    0.0000 F   0  0  0  0  0  0  0  0  0  0  0  0
    0.0000    0.0000    0.0000 C   0  0  0  0  0  0  0  0  0  0  0  0
    0.0000    0.0000    0.0000 C   0  0  0  0  0  0  0  0  0  0  0  0
    0.0000    0.0000    0.0000 O   0  0  0  0  0  0  0  0  0  0  0  0
    0.0000    0.0000    0.0000 C   0  0  0  0  0  0  0  0  0  0  0  0
    0.0000    0.0000    0.0000 C   0  0  0  0  0  0  0  0  0  0  0  0
    0.0000    0.0000    0.0000 C   0  0  0  0  0  0  0  0  0  0  0  0
    0.0000    0.0000    0.0000 C   0  0  0  0  0  0  0  0  0  0  0  0
    0.0000    0.0000    0.0000 C   0  0  0  0  0  0  0  0  0  0  0  0
    0.0000    0.0000    0.0000 N   0  0  0  0  0  0  0  0  0  0  0  0
    0.0000    0.0000    0.0000 S   0  0  0  0  0  0  0  0  0  0  0  0
    0.0000    0.0000    0.0000 O   0  0  0  0  0  0  0  0  0  0  0  0
    0.0000    0.0000    0.0000 O   0  0  0  0  0  0  0  0  0  0  0  0
    0.0000    0.0000    0.0000 N   0  0  0  0  0  0  0  0  0  0  0  0
    0.0000    0.0000    0.0000 C   0  0  0  0  0  0  0  0  0  0  0  0
  1  2  1  0
  2  3  2  0
  2  4  1  0
  4  5  2  0
  5  6  1  0
  6  7  1  0
  7  8  2  0
  8  9  1  0
  9 10  2  0
 10 11  1  0
 10 12  1  0
 12 13  2  0
 13 14  1  0
  5 15  1  0
 15 16  2  0
 16 17  1  0
 16 18  1  0
 18 19  2  0
 19 20  1  0
 20 21  1  0
 21 22  2  0
 22 23  1  0
 23 24  2  0
 24 25  1  0
 25 26  1  0
 26 27  1  0
 27 28  2  0
 27 29  2  0
 27 30  1  0
 25 31  2  0
 19  4  1  0
 13  7  1  0
 31 21  1  0
M  END
>  <pIC50>  (581) 
6.28

>  <ChEMBL_ID>  (581) 
CHEMBL2376666

>  <document_journal>  (581) 
Bioorg. Med. Chem. Lett.

>  <bao_endpoint>  (581) 
BAO_0000190

>  <potential_duplicate>  (581) 
None

>  <uo_units>  (581) 
UO_0000065

>  <canonical_smiles>  (581) 
NC(=O)c1c(Nc2ccc(I)cc2F)cc(F)cc1Oc3cccc(NS(=O)(=O)N)c3

>  <parent_molecule_chembl_id>  (581) 
CHEMBL2376666

>  <assay_type>  (581) 
B

>  <src_id>  (581) 
1

>  <ligand_efficiency>  (581) 
None

>  <standard_flag>  (581) 
True

>  <molecule_chembl_id>  (581) 
CHEMBL2376666

>  <target_organism>  (581) 
Homo sapiens

>  <standard_units>  (581) 
nM

>  <record_id>  (581) 
2742255

>  <document_chembl_id>  (581) 
CHEMBL3745607

>  <bao_format>  (581) 
None

>  <data_validity_description>  (581) 
None

>  <activity_id>  (581) 
16423280

>  <standard_type>  (581) 
IC50

>  <target_chembl_id>  (581) 
CHEMBL205

>  <data_validity_comment>  (581) 
None

>  <published_value>  (581) 
0.53

>  <document_year>  (581) 
2016

>  <target_pref_name>  (581) 
Carbonic anhydrase II

>  <assay_chembl_id>  (581) 
CHEMBL3750091

>  <standard_relation>  (581) 
=

>  <assay_description>  (581) 
Inhibition of human carbonic anhydrase 2

>  <published_relation>  (581) 
=

>  <standard_value>  (581) 
530

>  <qudt_units>  (581) 
http://www.openphacts.org/units/Nanomolar

>  <target_tax_id>  (581) 
9606

>  <bao_label>  (581) 
None

>  <published_units>  (581) 
uM

>  <pchembl_value>  (581) 
6.28

>  <published_type>  (581) 
IC50

>  <activity_comment>  (581) 
None

$$$$

     RDKit          

 32 34  0  0  0  0  0  0  0  0999 V2000
    0.0000    0.0000    0.0000 N   0  0  0  0  0  0  0  0  0  0  0  0
    0.0000    0.0000    0.0000 C   0  0  0  0  0  0  0  0  0  0  0  0
    0.0000    0.0000    0.0000 O   0  0  0  0  0  0  0  0  0  0  0  0
    0.0000    0.0000    0.0000 C   0  0  0  0  0  0  0  0  0  0  0  0
    0.0000    0.0000    0.0000 C   0  0  0  0  0  0  0  0  0  0  0  0
    0.0000    0.0000    0.0000 N   0  0  0  0  0  0  0  0  0  0  0  0
    0.0000    0.0000    0.0000 C   0  0  0  0  0  0  0  0  0  0  0  0
    0.0000    0.0000    0.0000 C   0  0  0  0  0  0  0  0  0  0  0  0
    0.0000    0.0000    0.0000 C   0  0  0  0  0  0  0  0  0  0  0  0
    0.0000    0.0000    0.0000 C   0  0  0  0  0  0  0  0  0  0  0  0
    0.0000    0.0000    0.0000 I   0  0  0  0  0  0  0  0  0  0  0  0
    0.0000    0.0000    0.0000 C   0  0  0  0  0  0  0  0  0  0  0  0
    0.0000    0.0000    0.0000 C   0  0  0  0  0  0  0  0  0  0  0  0
    0.0000    0.0000    0.0000 F   0  0  0  0  0  0  0  0  0  0  0  0
    0.0000    0.0000    0.0000 C   0  0  0  0  0  0  0  0  0  0  0  0
    0.0000    0.0000    0.0000 C   0  0  0  0  0  0  0  0  0  0  0  0
    0.0000    0.0000    0.0000 F   0  0  0  0  0  0  0  0  0  0  0  0
    0.0000    0.0000    0.0000 C   0  0  0  0  0  0  0  0  0  0  0  0
    0.0000    0.0000    0.0000 C   0  0  0  0  0  0  0  0  0  0  0  0
    0.0000    0.0000    0.0000 O   0  0  0  0  0  0  0  0  0  0  0  0
    0.0000    0.0000    0.0000 C   0  0  0  0  0  0  0  0  0  0  0  0
    0.0000    0.0000    0.0000 C   0  0  0  0  0  0  0  0  0  0  0  0
    0.0000    0.0000    0.0000 C   0  0  0  0  0  0  0  0  0  0  0  0
    0.0000    0.0000    0.0000 C   0  0  0  0  0  0  0  0  0  0  0  0
    0.0000    0.0000    0.0000 F   0  0  0  0  0  0  0  0  0  0  0  0
    0.0000    0.0000    0.0000 C   0  0  0  0  0  0  0  0  0  0  0  0
    0.0000    0.0000    0.0000 N   0  0  0  0  0  0  0  0  0  0  0  0
    0.0000    0.0000    0.0000 S   0  0  0  0  0  0  0  0  0  0  0  0
    0.0000    0.0000    0.0000 O   0  0  0  0  0  0  0  0  0  0  0  0
    0.0000    0.0000    0.0000 O   0  0  0  0  0  0  0  0  0  0  0  0
    0.0000    0.0000    0.0000 N   0  0  0  0  0  0  0  0  0  0  0  0
    0.0000    0.0000    0.0000 C   0  0  0  0  0  0  0  0  0  0  0  0
  1  2  1  0
  2  3  2  0
  2  4  1  0
  4  5  2  0
  5  6  1  0
  6  7  1  0
  7  8  2  0
  8  9  1  0
  9 10  2  0
 10 11  1  0
 10 12  1  0
 12 13  2  0
 13 14  1  0
  5 15  1  0
 15 16  2  0
 16 17  1  0
 16 18  1  0
 18 19  2  0
 19 20  1  0
 20 21  1  0
 21 22  2  0
 22 23  1  0
 23 24  2  0
 24 25  1  0
 24 26  1  0
 26 27  1  0
 27 28  1  0
 28 29  2  0
 28 30  2  0
 28 31  1  0
 26 32  2  0
 19  4  1  0
 13  7  1  0
 32 21  1  0
M  END
>  <pIC50>  (582) 
5.42

>  <ChEMBL_ID>  (582) 
CHEMBL3747368

>  <document_journal>  (582) 
Bioorg. Med. Chem. Lett.

>  <bao_endpoint>  (582) 
BAO_0000190

>  <potential_duplicate>  (582) 
None

>  <uo_units>  (582) 
UO_0000065

>  <canonical_smiles>  (582) 
NC(=O)c1c(Nc2ccc(I)cc2F)cc(F)cc1Oc3ccc(F)c(NS(=O)(=O)N)c3

>  <parent_molecule_chembl_id>  (582) 
CHEMBL3747368

>  <assay_type>  (582) 
B

>  <src_id>  (582) 
1

>  <ligand_efficiency>  (582) 
None

>  <standard_flag>  (582) 
True

>  <molecule_chembl_id>  (582) 
CHEMBL3747368

>  <target_organism>  (582) 
Homo sapiens

>  <standard_units>  (582) 
nM

>  <record_id>  (582) 
2742258

>  <document_chembl_id>  (582) 
CHEMBL3745607

>  <bao_format>  (582) 
None

>  <data_validity_description>  (582) 
None

>  <activity_id>  (582) 
16423281

>  <standard_type>  (582) 
IC50

>  <target_chembl_id>  (582) 
CHEMBL205

>  <data_validity_comment>  (582) 
None

>  <published_value>  (582) 
3.8

>  <document_year>  (582) 
2016

>  <target_pref_name>  (582) 
Carbonic anhydrase II

>  <assay_chembl_id>  (582) 
CHEMBL3750091

>  <standard_relation>  (582) 
=

>  <assay_description>  (582) 
Inhibition of human carbonic anhydrase 2

>  <published_relation>  (582) 
=

>  <standard_value>  (582) 
3800

>  <qudt_units>  (582) 
http://www.openphacts.org/units/Nanomolar

>  <target_tax_id>  (582) 
9606

>  <bao_label>  (582) 
None

>  <published_units>  (582) 
uM

>  <pchembl_value>  (582) 
5.42

>  <published_type>  (582) 
IC50

>  <activity_comment>  (582) 
None

$$$$

     RDKit          

 33 35  0  0  0  0  0  0  0  0999 V2000
    0.0000    0.0000    0.0000 N   0  0  0  0  0  0  0  0  0  0  0  0
    0.0000    0.0000    0.0000 C   0  0  0  0  0  0  0  0  0  0  0  0
    0.0000    0.0000    0.0000 O   0  0  0  0  0  0  0  0  0  0  0  0
    0.0000    0.0000    0.0000 C   0  0  0  0  0  0  0  0  0  0  0  0
    0.0000    0.0000    0.0000 C   0  0  0  0  0  0  0  0  0  0  0  0
    0.0000    0.0000    0.0000 N   0  0  0  0  0  0  0  0  0  0  0  0
    0.0000    0.0000    0.0000 C   0  0  0  0  0  0  0  0  0  0  0  0
    0.0000    0.0000    0.0000 C   0  0  0  0  0  0  0  0  0  0  0  0
    0.0000    0.0000    0.0000 C   0  0  0  0  0  0  0  0  0  0  0  0
    0.0000    0.0000    0.0000 C   0  0  0  0  0  0  0  0  0  0  0  0
    0.0000    0.0000    0.0000 I   0  0  0  0  0  0  0  0  0  0  0  0
    0.0000    0.0000    0.0000 C   0  0  0  0  0  0  0  0  0  0  0  0
    0.0000    0.0000    0.0000 C   0  0  0  0  0  0  0  0  0  0  0  0
    0.0000    0.0000    0.0000 F   0  0  0  0  0  0  0  0  0  0  0  0
    0.0000    0.0000    0.0000 C   0  0  0  0  0  0  0  0  0  0  0  0
    0.0000    0.0000    0.0000 C   0  0  0  0  0  0  0  0  0  0  0  0
    0.0000    0.0000    0.0000 F   0  0  0  0  0  0  0  0  0  0  0  0
    0.0000    0.0000    0.0000 C   0  0  0  0  0  0  0  0  0  0  0  0
    0.0000    0.0000    0.0000 C   0  0  0  0  0  0  0  0  0  0  0  0
    0.0000    0.0000    0.0000 O   0  0  0  0  0  0  0  0  0  0  0  0
    0.0000    0.0000    0.0000 C   0  0  0  0  0  0  0  0  0  0  0  0
    0.0000    0.0000    0.0000 C   0  0  0  0  0  0  0  0  0  0  0  0
    0.0000    0.0000    0.0000 C   0  0  0  0  0  0  0  0  0  0  0  0
    0.0000    0.0000    0.0000 C   0  0  0  0  0  0  0  0  0  0  0  0
    0.0000    0.0000    0.0000 F   0  0  0  0  0  0  0  0  0  0  0  0
    0.0000    0.0000    0.0000 C   0  0  0  0  0  0  0  0  0  0  0  0
    0.0000    0.0000    0.0000 N   0  0  0  0  0  0  0  0  0  0  0  0
    0.0000    0.0000    0.0000 S   0  0  0  0  0  0  0  0  0  0  0  0
    0.0000    0.0000    0.0000 O   0  0  0  0  0  0  0  0  0  0  0  0
    0.0000    0.0000    0.0000 O   0  0  0  0  0  0  0  0  0  0  0  0
    0.0000    0.0000    0.0000 N   0  0  0  0  0  0  0  0  0  0  0  0
    0.0000    0.0000    0.0000 C   0  0  0  0  0  0  0  0  0  0  0  0
    0.0000    0.0000    0.0000 F   0  0  0  0  0  0  0  0  0  0  0  0
  1  2  1  0
  2  3  2  0
  2  4  1  0
  4  5  2  0
  5  6  1  0
  6  7  1  0
  7  8  2  0
  8  9  1  0
  9 10  2  0
 10 11  1  0
 10 12  1  0
 12 13  2  0
 13 14  1  0
  5 15  1  0
 15 16  2  0
 16 17  1  0
 16 18  1  0
 18 19  2  0
 19 20  1  0
 20 21  1  0
 21 22  2  0
 22 23  1  0
 23 24  2  0
 24 25  1  0
 24 26  1  0
 26 27  1  0
 27 28  1  0
 28 29  2  0
 28 30  2  0
 28 31  1  0
 26 32  2  0
 32 33  1  0
 19  4  1  0
 13  7  1  0
 32 21  1  0
M  END
>  <pIC50>  (583) 
5.0

>  <ChEMBL_ID>  (583) 
CHEMBL3746516

>  <document_journal>  (583) 
Bioorg. Med. Chem. Lett.

>  <bao_endpoint>  (583) 
BAO_0000190

>  <potential_duplicate>  (583) 
None

>  <uo_units>  (583) 
UO_0000065

>  <canonical_smiles>  (583) 
NC(=O)c1c(Nc2ccc(I)cc2F)cc(F)cc1Oc3ccc(F)c(NS(=O)(=O)N)c3F

>  <parent_molecule_chembl_id>  (583) 
CHEMBL3746516

>  <assay_type>  (583) 
B

>  <src_id>  (583) 
1

>  <ligand_efficiency>  (583) 
None

>  <standard_flag>  (583) 
True

>  <molecule_chembl_id>  (583) 
CHEMBL3746516

>  <target_organism>  (583) 
Homo sapiens

>  <standard_units>  (583) 
nM

>  <record_id>  (583) 
2742259

>  <document_chembl_id>  (583) 
CHEMBL3745607

>  <bao_format>  (583) 
None

>  <data_validity_description>  (583) 
None

>  <activity_id>  (583) 
16423282

>  <standard_type>  (583) 
IC50

>  <target_chembl_id>  (583) 
CHEMBL205

>  <data_validity_comment>  (583) 
None

>  <published_value>  (583) 
10

>  <document_year>  (583) 
2016

>  <target_pref_name>  (583) 
Carbonic anhydrase II

>  <assay_chembl_id>  (583) 
CHEMBL3750091

>  <standard_relation>  (583) 
=

>  <assay_description>  (583) 
Inhibition of human carbonic anhydrase 2

>  <published_relation>  (583) 
=

>  <standard_value>  (583) 
10000

>  <qudt_units>  (583) 
http://www.openphacts.org/units/Nanomolar

>  <target_tax_id>  (583) 
9606

>  <bao_label>  (583) 
None

>  <published_units>  (583) 
uM

>  <pchembl_value>  (583) 
5

>  <published_type>  (583) 
IC50

>  <activity_comment>  (583) 
None

$$$$

     RDKit          

 32 34  0  0  0  0  0  0  0  0999 V2000
    0.0000    0.0000    0.0000 C   0  0  0  0  0  0  0  0  0  0  0  0
    0.0000    0.0000    0.0000 C   0  0  0  0  0  0  0  0  0  0  0  0
    0.0000    0.0000    0.0000 C   0  0  0  0  0  0  0  0  0  0  0  0
    0.0000    0.0000    0.0000 N   0  0  0  0  0  0  0  0  0  0  0  0
    0.0000    0.0000    0.0000 S   0  0  0  0  0  0  0  0  0  0  0  0
    0.0000    0.0000    0.0000 O   0  0  0  0  0  0  0  0  0  0  0  0
    0.0000    0.0000    0.0000 O   0  0  0  0  0  0  0  0  0  0  0  0
    0.0000    0.0000    0.0000 N   0  0  0  0  0  0  0  0  0  0  0  0
    0.0000    0.0000    0.0000 C   0  0  0  0  0  0  0  0  0  0  0  0
    0.0000    0.0000    0.0000 C   0  0  0  0  0  0  0  0  0  0  0  0
    0.0000    0.0000    0.0000 C   0  0  0  0  0  0  0  0  0  0  0  0
    0.0000    0.0000    0.0000 C   0  0  0  0  0  0  0  0  0  0  0  0
    0.0000    0.0000    0.0000 O   0  0  0  0  0  0  0  0  0  0  0  0
    0.0000    0.0000    0.0000 C   0  0  0  0  0  0  0  0  0  0  0  0
    0.0000    0.0000    0.0000 C   0  0  0  0  0  0  0  0  0  0  0  0
    0.0000    0.0000    0.0000 C   0  0  0  0  0  0  0  0  0  0  0  0
    0.0000    0.0000    0.0000 F   0  0  0  0  0  0  0  0  0  0  0  0
    0.0000    0.0000    0.0000 C   0  0  0  0  0  0  0  0  0  0  0  0
    0.0000    0.0000    0.0000 C   0  0  0  0  0  0  0  0  0  0  0  0
    0.0000    0.0000    0.0000 N   0  0  0  0  0  0  0  0  0  0  0  0
    0.0000    0.0000    0.0000 C   0  0  0  0  0  0  0  0  0  0  0  0
    0.0000    0.0000    0.0000 C   0  0  0  0  0  0  0  0  0  0  0  0
    0.0000    0.0000    0.0000 C   0  0  0  0  0  0  0  0  0  0  0  0
    0.0000    0.0000    0.0000 C   0  0  0  0  0  0  0  0  0  0  0  0
    0.0000    0.0000    0.0000 I   0  0  0  0  0  0  0  0  0  0  0  0
    0.0000    0.0000    0.0000 C   0  0  0  0  0  0  0  0  0  0  0  0
    0.0000    0.0000    0.0000 C   0  0  0  0  0  0  0  0  0  0  0  0
    0.0000    0.0000    0.0000 F   0  0  0  0  0  0  0  0  0  0  0  0
    0.0000    0.0000    0.0000 C   0  0  0  0  0  0  0  0  0  0  0  0
    0.0000    0.0000    0.0000 C   0  0  0  0  0  0  0  0  0  0  0  0
    0.0000    0.0000    0.0000 O   0  0  0  0  0  0  0  0  0  0  0  0
    0.0000    0.0000    0.0000 N   0  0  0  0  0  0  0  0  0  0  0  0
  1  2  1  0
  2  3  2  0
  3  4  1  0
  4  5  1  0
  5  6  2  0
  5  7  2  0
  5  8  1  0
  3  9  1  0
  9 10  2  0
 10 11  1  0
 11 12  2  0
 12 13  1  0
 13 14  1  0
 14 15  2  0
 15 16  1  0
 16 17  1  0
 16 18  2  0
 18 19  1  0
 19 20  1  0
 20 21  1  0
 21 22  2  0
 22 23  1  0
 23 24  2  0
 24 25  1  0
 24 26  1  0
 26 27  2  0
 27 28  1  0
 19 29  2  0
 29 30  1  0
 30 31  2  0
 30 32  1  0
 12  2  1  0
 29 14  1  0
 27 21  1  0
M  END
>  <pIC50>  (584) 
6.16

>  <ChEMBL_ID>  (584) 
CHEMBL3747256

>  <document_journal>  (584) 
Bioorg. Med. Chem. Lett.

>  <bao_endpoint>  (584) 
BAO_0000190

>  <potential_duplicate>  (584) 
None

>  <uo_units>  (584) 
UO_0000065

>  <canonical_smiles>  (584) 
Cc1c(NS(=O)(=O)N)cccc1Oc2cc(F)cc(Nc3ccc(I)cc3F)c2C(=O)N

>  <parent_molecule_chembl_id>  (584) 
CHEMBL3747256

>  <assay_type>  (584) 
B

>  <src_id>  (584) 
1

>  <ligand_efficiency>  (584) 
None

>  <standard_flag>  (584) 
True

>  <molecule_chembl_id>  (584) 
CHEMBL3747256

>  <target_organism>  (584) 
Homo sapiens

>  <standard_units>  (584) 
nM

>  <record_id>  (584) 
2742265

>  <document_chembl_id>  (584) 
CHEMBL3745607

>  <bao_format>  (584) 
None

>  <data_validity_description>  (584) 
None

>  <activity_id>  (584) 
16423283

>  <standard_type>  (584) 
IC50

>  <target_chembl_id>  (584) 
CHEMBL205

>  <data_validity_comment>  (584) 
None

>  <published_value>  (584) 
0.7

>  <document_year>  (584) 
2016

>  <target_pref_name>  (584) 
Carbonic anhydrase II

>  <assay_chembl_id>  (584) 
CHEMBL3750091

>  <standard_relation>  (584) 
=

>  <assay_description>  (584) 
Inhibition of human carbonic anhydrase 2

>  <published_relation>  (584) 
=

>  <standard_value>  (584) 
700

>  <qudt_units>  (584) 
http://www.openphacts.org/units/Nanomolar

>  <target_tax_id>  (584) 
9606

>  <bao_label>  (584) 
None

>  <published_units>  (584) 
uM

>  <pchembl_value>  (584) 
6.16

>  <published_type>  (584) 
IC50

>  <activity_comment>  (584) 
None

$$$$

     RDKit          

 32 34  0  0  0  0  0  0  0  0999 V2000
    0.0000    0.0000    0.0000 N   0  0  0  0  0  0  0  0  0  0  0  0
    0.0000    0.0000    0.0000 C   0  0  0  0  0  0  0  0  0  0  0  0
    0.0000    0.0000    0.0000 O   0  0  0  0  0  0  0  0  0  0  0  0
    0.0000    0.0000    0.0000 C   0  0  0  0  0  0  0  0  0  0  0  0
    0.0000    0.0000    0.0000 C   0  0  0  0  0  0  0  0  0  0  0  0
    0.0000    0.0000    0.0000 N   0  0  0  0  0  0  0  0  0  0  0  0
    0.0000    0.0000    0.0000 C   0  0  0  0  0  0  0  0  0  0  0  0
    0.0000    0.0000    0.0000 C   0  0  0  0  0  0  0  0  0  0  0  0
    0.0000    0.0000    0.0000 C   0  0  0  0  0  0  0  0  0  0  0  0
    0.0000    0.0000    0.0000 C   0  0  0  0  0  0  0  0  0  0  0  0
    0.0000    0.0000    0.0000 I   0  0  0  0  0  0  0  0  0  0  0  0
    0.0000    0.0000    0.0000 C   0  0  0  0  0  0  0  0  0  0  0  0
    0.0000    0.0000    0.0000 C   0  0  0  0  0  0  0  0  0  0  0  0
    0.0000    0.0000    0.0000 F   0  0  0  0  0  0  0  0  0  0  0  0
    0.0000    0.0000    0.0000 C   0  0  0  0  0  0  0  0  0  0  0  0
    0.0000    0.0000    0.0000 C   0  0  0  0  0  0  0  0  0  0  0  0
    0.0000    0.0000    0.0000 F   0  0  0  0  0  0  0  0  0  0  0  0
    0.0000    0.0000    0.0000 C   0  0  0  0  0  0  0  0  0  0  0  0
    0.0000    0.0000    0.0000 C   0  0  0  0  0  0  0  0  0  0  0  0
    0.0000    0.0000    0.0000 O   0  0  0  0  0  0  0  0  0  0  0  0
    0.0000    0.0000    0.0000 C   0  0  0  0  0  0  0  0  0  0  0  0
    0.0000    0.0000    0.0000 C   0  0  0  0  0  0  0  0  0  0  0  0
    0.0000    0.0000    0.0000 C   0  0  0  0  0  0  0  0  0  0  0  0
    0.0000    0.0000    0.0000 C   0  0  0  0  0  0  0  0  0  0  0  0
    0.0000    0.0000    0.0000 C   0  0  0  0  0  0  0  0  0  0  0  0
    0.0000    0.0000    0.0000 N   0  0  0  0  0  0  0  0  0  0  0  0
    0.0000    0.0000    0.0000 S   0  0  0  0  0  0  0  0  0  0  0  0
    0.0000    0.0000    0.0000 O   0  0  0  0  0  0  0  0  0  0  0  0
    0.0000    0.0000    0.0000 O   0  0  0  0  0  0  0  0  0  0  0  0
    0.0000    0.0000    0.0000 N   0  0  0  0  0  0  0  0  0  0  0  0
    0.0000    0.0000    0.0000 C   0  0  0  0  0  0  0  0  0  0  0  0
    0.0000    0.0000    0.0000 Cl  0  0  0  0  0  0  0  0  0  0  0  0
  1  2  1  0
  2  3  2  0
  2  4  1  0
  4  5  2  0
  5  6  1  0
  6  7  1  0
  7  8  2  0
  8  9  1  0
  9 10  2  0
 10 11  1  0
 10 12  1  0
 12 13  2  0
 13 14  1  0
  5 15  1  0
 15 16  2  0
 16 17  1  0
 16 18  1  0
 18 19  2  0
 19 20  1  0
 20 21  1  0
 21 22  2  0
 22 23  1  0
 23 24  2  0
 24 25  1  0
 25 26  1  0
 26 27  1  0
 27 28  2  0
 27 29  2  0
 27 30  1  0
 25 31  2  0
 31 32  1  0
 19  4  1  0
 13  7  1  0
 31 21  1  0
M  END
>  <pIC50>  (585) 
6.16

>  <ChEMBL_ID>  (585) 
CHEMBL3747359

>  <document_journal>  (585) 
Bioorg. Med. Chem. Lett.

>  <bao_endpoint>  (585) 
BAO_0000190

>  <potential_duplicate>  (585) 
None

>  <uo_units>  (585) 
UO_0000065

>  <canonical_smiles>  (585) 
NC(=O)c1c(Nc2ccc(I)cc2F)cc(F)cc1Oc3cccc(NS(=O)(=O)N)c3Cl

>  <parent_molecule_chembl_id>  (585) 
CHEMBL3747359

>  <assay_type>  (585) 
B

>  <src_id>  (585) 
1

>  <ligand_efficiency>  (585) 
None

>  <standard_flag>  (585) 
True

>  <molecule_chembl_id>  (585) 
CHEMBL3747359

>  <target_organism>  (585) 
Homo sapiens

>  <standard_units>  (585) 
nM

>  <record_id>  (585) 
2742266

>  <document_chembl_id>  (585) 
CHEMBL3745607

>  <bao_format>  (585) 
None

>  <data_validity_description>  (585) 
None

>  <activity_id>  (585) 
16423284

>  <standard_type>  (585) 
IC50

>  <target_chembl_id>  (585) 
CHEMBL205

>  <data_validity_comment>  (585) 
None

>  <published_value>  (585) 
0.7

>  <document_year>  (585) 
2016

>  <target_pref_name>  (585) 
Carbonic anhydrase II

>  <assay_chembl_id>  (585) 
CHEMBL3750091

>  <standard_relation>  (585) 
=

>  <assay_description>  (585) 
Inhibition of human carbonic anhydrase 2

>  <published_relation>  (585) 
=

>  <standard_value>  (585) 
700

>  <qudt_units>  (585) 
http://www.openphacts.org/units/Nanomolar

>  <target_tax_id>  (585) 
9606

>  <bao_label>  (585) 
None

>  <published_units>  (585) 
uM

>  <pchembl_value>  (585) 
6.16

>  <published_type>  (585) 
IC50

>  <activity_comment>  (585) 
None

$$$$

     RDKit          

 31 33  0  0  0  0  0  0  0  0999 V2000
    0.0000    0.0000    0.0000 N   0  0  0  0  0  0  0  0  0  0  0  0
    0.0000    0.0000    0.0000 C   0  0  0  0  0  0  0  0  0  0  0  0
    0.0000    0.0000    0.0000 O   0  0  0  0  0  0  0  0  0  0  0  0
    0.0000    0.0000    0.0000 C   0  0  0  0  0  0  0  0  0  0  0  0
    0.0000    0.0000    0.0000 C   0  0  0  0  0  0  0  0  0  0  0  0
    0.0000    0.0000    0.0000 N   0  0  0  0  0  0  0  0  0  0  0  0
    0.0000    0.0000    0.0000 C   0  0  0  0  0  0  0  0  0  0  0  0
    0.0000    0.0000    0.0000 C   0  0  0  0  0  0  0  0  0  0  0  0
    0.0000    0.0000    0.0000 C   0  0  0  0  0  0  0  0  0  0  0  0
    0.0000    0.0000    0.0000 C   0  0  0  0  0  0  0  0  0  0  0  0
    0.0000    0.0000    0.0000 I   0  0  0  0  0  0  0  0  0  0  0  0
    0.0000    0.0000    0.0000 C   0  0  0  0  0  0  0  0  0  0  0  0
    0.0000    0.0000    0.0000 C   0  0  0  0  0  0  0  0  0  0  0  0
    0.0000    0.0000    0.0000 F   0  0  0  0  0  0  0  0  0  0  0  0
    0.0000    0.0000    0.0000 C   0  0  0  0  0  0  0  0  0  0  0  0
    0.0000    0.0000    0.0000 C   0  0  0  0  0  0  0  0  0  0  0  0
    0.0000    0.0000    0.0000 F   0  0  0  0  0  0  0  0  0  0  0  0
    0.0000    0.0000    0.0000 C   0  0  0  0  0  0  0  0  0  0  0  0
    0.0000    0.0000    0.0000 C   0  0  0  0  0  0  0  0  0  0  0  0
    0.0000    0.0000    0.0000 O   0  0  0  0  0  0  0  0  0  0  0  0
    0.0000    0.0000    0.0000 C   0  0  0  0  0  0  0  0  0  0  0  0
    0.0000    0.0000    0.0000 C   0  0  0  0  0  0  0  0  0  0  0  0
    0.0000    0.0000    0.0000 C   0  0  0  0  0  0  0  0  0  0  0  0
    0.0000    0.0000    0.0000 C   0  0  0  0  0  0  0  0  0  0  0  0
    0.0000    0.0000    0.0000 C   0  0  0  0  0  0  0  0  0  0  0  0
    0.0000    0.0000    0.0000 C   0  0  0  0  0  0  0  0  0  0  0  0
    0.0000    0.0000    0.0000 N   0  0  0  0  0  0  0  0  0  0  0  0
    0.0000    0.0000    0.0000 S   0  0  0  0  0  0  0  0  0  0  0  0
    0.0000    0.0000    0.0000 O   0  0  0  0  0  0  0  0  0  0  0  0
    0.0000    0.0000    0.0000 O   0  0  0  0  0  0  0  0  0  0  0  0
    0.0000    0.0000    0.0000 N   0  0  0  0  0  0  0  0  0  0  0  0
  1  2  1  0
  2  3  2  0
  2  4  1  0
  4  5  2  0
  5  6  1  0
  6  7  1  0
  7  8  2  0
  8  9  1  0
  9 10  2  0
 10 11  1  0
 10 12  1  0
 12 13  2  0
 13 14  1  0
  5 15  1  0
 15 16  2  0
 16 17  1  0
 16 18  1  0
 18 19  2  0
 19 20  1  0
 20 21  1  0
 21 22  2  0
 22 23  1  0
 23 24  2  0
 24 25  1  0
 25 26  2  0
 26 27  1  0
 27 28  1  0
 28 29  2  0
 28 30  2  0
 28 31  1  0
 19  4  1  0
 13  7  1  0
 26 21  1  0
M  END
>  <pIC50>  (586) 
6.3

>  <ChEMBL_ID>  (586) 
CHEMBL3746142

>  <document_journal>  (586) 
Bioorg. Med. Chem. Lett.

>  <bao_endpoint>  (586) 
BAO_0000190

>  <potential_duplicate>  (586) 
None

>  <uo_units>  (586) 
UO_0000065

>  <canonical_smiles>  (586) 
NC(=O)c1c(Nc2ccc(I)cc2F)cc(F)cc1Oc3ccccc3NS(=O)(=O)N

>  <parent_molecule_chembl_id>  (586) 
CHEMBL3746142

>  <assay_type>  (586) 
B

>  <src_id>  (586) 
1

>  <ligand_efficiency>  (586) 
None

>  <standard_flag>  (586) 
True

>  <molecule_chembl_id>  (586) 
CHEMBL3746142

>  <target_organism>  (586) 
Homo sapiens

>  <standard_units>  (586) 
nM

>  <record_id>  (586) 
2742518

>  <document_chembl_id>  (586) 
CHEMBL3745607

>  <bao_format>  (586) 
None

>  <data_validity_description>  (586) 
None

>  <activity_id>  (586) 
16423285

>  <standard_type>  (586) 
IC50

>  <target_chembl_id>  (586) 
CHEMBL205

>  <data_validity_comment>  (586) 
None

>  <published_value>  (586) 
0.5

>  <document_year>  (586) 
2016

>  <target_pref_name>  (586) 
Carbonic anhydrase II

>  <assay_chembl_id>  (586) 
CHEMBL3750091

>  <standard_relation>  (586) 
=

>  <assay_description>  (586) 
Inhibition of human carbonic anhydrase 2

>  <published_relation>  (586) 
=

>  <standard_value>  (586) 
500

>  <qudt_units>  (586) 
http://www.openphacts.org/units/Nanomolar

>  <target_tax_id>  (586) 
9606

>  <bao_label>  (586) 
None

>  <published_units>  (586) 
uM

>  <pchembl_value>  (586) 
6.3

>  <published_type>  (586) 
IC50

>  <activity_comment>  (586) 
None

$$$$

     RDKit          

 31 33  0  0  0  0  0  0  0  0999 V2000
    0.0000    0.0000    0.0000 N   0  0  0  0  0  0  0  0  0  0  0  0
    0.0000    0.0000    0.0000 C   0  0  0  0  0  0  0  0  0  0  0  0
    0.0000    0.0000    0.0000 O   0  0  0  0  0  0  0  0  0  0  0  0
    0.0000    0.0000    0.0000 C   0  0  0  0  0  0  0  0  0  0  0  0
    0.0000    0.0000    0.0000 C   0  0  0  0  0  0  0  0  0  0  0  0
    0.0000    0.0000    0.0000 N   0  0  0  0  0  0  0  0  0  0  0  0
    0.0000    0.0000    0.0000 C   0  0  0  0  0  0  0  0  0  0  0  0
    0.0000    0.0000    0.0000 C   0  0  0  0  0  0  0  0  0  0  0  0
    0.0000    0.0000    0.0000 C   0  0  0  0  0  0  0  0  0  0  0  0
    0.0000    0.0000    0.0000 C   0  0  0  0  0  0  0  0  0  0  0  0
    0.0000    0.0000    0.0000 I   0  0  0  0  0  0  0  0  0  0  0  0
    0.0000    0.0000    0.0000 C   0  0  0  0  0  0  0  0  0  0  0  0
    0.0000    0.0000    0.0000 C   0  0  0  0  0  0  0  0  0  0  0  0
    0.0000    0.0000    0.0000 F   0  0  0  0  0  0  0  0  0  0  0  0
    0.0000    0.0000    0.0000 C   0  0  0  0  0  0  0  0  0  0  0  0
    0.0000    0.0000    0.0000 C   0  0  0  0  0  0  0  0  0  0  0  0
    0.0000    0.0000    0.0000 F   0  0  0  0  0  0  0  0  0  0  0  0
    0.0000    0.0000    0.0000 C   0  0  0  0  0  0  0  0  0  0  0  0
    0.0000    0.0000    0.0000 C   0  0  0  0  0  0  0  0  0  0  0  0
    0.0000    0.0000    0.0000 O   0  0  0  0  0  0  0  0  0  0  0  0
    0.0000    0.0000    0.0000 C   0  0  0  0  0  0  0  0  0  0  0  0
    0.0000    0.0000    0.0000 C   0  0  0  0  0  0  0  0  0  0  0  0
    0.0000    0.0000    0.0000 C   0  0  0  0  0  0  0  0  0  0  0  0
    0.0000    0.0000    0.0000 C   0  0  0  0  0  0  0  0  0  0  0  0
    0.0000    0.0000    0.0000 C   0  0  0  0  0  0  0  0  0  0  0  0
    0.0000    0.0000    0.0000 C   0  0  0  0  0  0  0  0  0  0  0  0
    0.0000    0.0000    0.0000 S   0  0  0  0  0  0  0  0  0  0  0  0
    0.0000    0.0000    0.0000 O   0  0  0  0  0  0  0  0  0  0  0  0
    0.0000    0.0000    0.0000 O   0  0  0  0  0  0  0  0  0  0  0  0
    0.0000    0.0000    0.0000 N   0  0  0  0  0  0  0  0  0  0  0  0
    0.0000    0.0000    0.0000 C   0  0  0  0  0  0  0  0  0  0  0  0
  1  2  1  0
  2  3  2  0
  2  4  1  0
  4  5  2  0
  5  6  1  0
  6  7  1  0
  7  8  2  0
  8  9  1  0
  9 10  2  0
 10 11  1  0
 10 12  1  0
 12 13  2  0
 13 14  1  0
  5 15  1  0
 15 16  2  0
 16 17  1  0
 16 18  1  0
 18 19  2  0
 19 20  1  0
 20 21  1  0
 21 22  2  0
 22 23  1  0
 23 24  2  0
 24 25  1  0
 25 26  1  0
 26 27  1  0
 27 28  2  0
 27 29  2  0
 27 30  1  0
 25 31  2  0
 19  4  1  0
 13  7  1  0
 31 21  1  0
M  END
>  <pIC50>  (587) 
5.89

>  <ChEMBL_ID>  (587) 
CHEMBL2376667

>  <document_journal>  (587) 
Bioorg. Med. Chem. Lett.

>  <bao_endpoint>  (587) 
BAO_0000190

>  <potential_duplicate>  (587) 
None

>  <uo_units>  (587) 
UO_0000065

>  <canonical_smiles>  (587) 
NC(=O)c1c(Nc2ccc(I)cc2F)cc(F)cc1Oc3cccc(CS(=O)(=O)N)c3

>  <parent_molecule_chembl_id>  (587) 
CHEMBL2376667

>  <assay_type>  (587) 
B

>  <src_id>  (587) 
1

>  <ligand_efficiency>  (587) 
None

>  <standard_flag>  (587) 
True

>  <molecule_chembl_id>  (587) 
CHEMBL2376667

>  <target_organism>  (587) 
Homo sapiens

>  <standard_units>  (587) 
nM

>  <record_id>  (587) 
2742521

>  <document_chembl_id>  (587) 
CHEMBL3745607

>  <bao_format>  (587) 
None

>  <data_validity_description>  (587) 
None

>  <activity_id>  (587) 
16423286

>  <standard_type>  (587) 
IC50

>  <target_chembl_id>  (587) 
CHEMBL205

>  <data_validity_comment>  (587) 
None

>  <published_value>  (587) 
1.3

>  <document_year>  (587) 
2016

>  <target_pref_name>  (587) 
Carbonic anhydrase II

>  <assay_chembl_id>  (587) 
CHEMBL3750091

>  <standard_relation>  (587) 
=

>  <assay_description>  (587) 
Inhibition of human carbonic anhydrase 2

>  <published_relation>  (587) 
=

>  <standard_value>  (587) 
1300

>  <qudt_units>  (587) 
http://www.openphacts.org/units/Nanomolar

>  <target_tax_id>  (587) 
9606

>  <bao_label>  (587) 
None

>  <published_units>  (587) 
uM

>  <pchembl_value>  (587) 
5.89

>  <published_type>  (587) 
IC50

>  <activity_comment>  (587) 
None

$$$$

     RDKit          

 32 34  0  0  0  0  0  0  0  0999 V2000
    0.0000    0.0000    0.0000 N   0  0  0  0  0  0  0  0  0  0  0  0
    0.0000    0.0000    0.0000 C   0  0  0  0  0  0  0  0  0  0  0  0
    0.0000    0.0000    0.0000 O   0  0  0  0  0  0  0  0  0  0  0  0
    0.0000    0.0000    0.0000 C   0  0  0  0  0  0  0  0  0  0  0  0
    0.0000    0.0000    0.0000 C   0  0  0  0  0  0  0  0  0  0  0  0
    0.0000    0.0000    0.0000 N   0  0  0  0  0  0  0  0  0  0  0  0
    0.0000    0.0000    0.0000 C   0  0  0  0  0  0  0  0  0  0  0  0
    0.0000    0.0000    0.0000 C   0  0  0  0  0  0  0  0  0  0  0  0
    0.0000    0.0000    0.0000 C   0  0  0  0  0  0  0  0  0  0  0  0
    0.0000    0.0000    0.0000 C   0  0  0  0  0  0  0  0  0  0  0  0
    0.0000    0.0000    0.0000 I   0  0  0  0  0  0  0  0  0  0  0  0
    0.0000    0.0000    0.0000 C   0  0  0  0  0  0  0  0  0  0  0  0
    0.0000    0.0000    0.0000 C   0  0  0  0  0  0  0  0  0  0  0  0
    0.0000    0.0000    0.0000 F   0  0  0  0  0  0  0  0  0  0  0  0
    0.0000    0.0000    0.0000 C   0  0  0  0  0  0  0  0  0  0  0  0
    0.0000    0.0000    0.0000 C   0  0  0  0  0  0  0  0  0  0  0  0
    0.0000    0.0000    0.0000 F   0  0  0  0  0  0  0  0  0  0  0  0
    0.0000    0.0000    0.0000 C   0  0  0  0  0  0  0  0  0  0  0  0
    0.0000    0.0000    0.0000 C   0  0  0  0  0  0  0  0  0  0  0  0
    0.0000    0.0000    0.0000 O   0  0  0  0  0  0  0  0  0  0  0  0
    0.0000    0.0000    0.0000 C   0  0  0  0  0  0  0  0  0  0  0  0
    0.0000    0.0000    0.0000 C   0  0  0  0  0  0  0  0  0  0  0  0
    0.0000    0.0000    0.0000 C   0  0  0  0  0  0  0  0  0  0  0  0
    0.0000    0.0000    0.0000 C   0  0  0  0  0  0  0  0  0  0  0  0
    0.0000    0.0000    0.0000 C   0  0  0  0  0  0  0  0  0  0  0  0
    0.0000    0.0000    0.0000 C   0  0  0  0  0  0  0  0  0  0  0  0
    0.0000    0.0000    0.0000 N   0  0  0  0  0  0  0  0  0  0  0  0
    0.0000    0.0000    0.0000 S   0  0  0  0  0  0  0  0  0  0  0  0
    0.0000    0.0000    0.0000 O   0  0  0  0  0  0  0  0  0  0  0  0
    0.0000    0.0000    0.0000 O   0  0  0  0  0  0  0  0  0  0  0  0
    0.0000    0.0000    0.0000 N   0  0  0  0  0  0  0  0  0  0  0  0
    0.0000    0.0000    0.0000 C   0  0  0  0  0  0  0  0  0  0  0  0
  1  2  1  0
  2  3  2  0
  2  4  1  0
  4  5  2  0
  5  6  1  0
  6  7  1  0
  7  8  2  0
  8  9  1  0
  9 10  2  0
 10 11  1  0
 10 12  1  0
 12 13  2  0
 13 14  1  0
  5 15  1  0
 15 16  2  0
 16 17  1  0
 16 18  1  0
 18 19  2  0
 19 20  1  0
 20 21  1  0
 21 22  2  0
 22 23  1  0
 23 24  2  0
 24 25  1  0
 25 26  1  0
 26 27  1  0
 27 28  1  0
 28 29  2  0
 28 30  2  0
 28 31  1  0
 25 32  2  0
 19  4  1  0
 13  7  1  0
 32 21  1  0
M  END
>  <pIC50>  (588) 
5.55

>  <ChEMBL_ID>  (588) 
CHEMBL3746923

>  <document_journal>  (588) 
Bioorg. Med. Chem. Lett.

>  <bao_endpoint>  (588) 
BAO_0000190

>  <potential_duplicate>  (588) 
None

>  <uo_units>  (588) 
UO_0000065

>  <canonical_smiles>  (588) 
NC(=O)c1c(Nc2ccc(I)cc2F)cc(F)cc1Oc3cccc(CNS(=O)(=O)N)c3

>  <parent_molecule_chembl_id>  (588) 
CHEMBL3746923

>  <assay_type>  (588) 
B

>  <src_id>  (588) 
1

>  <ligand_efficiency>  (588) 
None

>  <standard_flag>  (588) 
True

>  <molecule_chembl_id>  (588) 
CHEMBL3746923

>  <target_organism>  (588) 
Homo sapiens

>  <standard_units>  (588) 
nM

>  <record_id>  (588) 
2742523

>  <document_chembl_id>  (588) 
CHEMBL3745607

>  <bao_format>  (588) 
None

>  <data_validity_description>  (588) 
None

>  <activity_id>  (588) 
16423288

>  <standard_type>  (588) 
IC50

>  <target_chembl_id>  (588) 
CHEMBL205

>  <data_validity_comment>  (588) 
None

>  <published_value>  (588) 
2.8

>  <document_year>  (588) 
2016

>  <target_pref_name>  (588) 
Carbonic anhydrase II

>  <assay_chembl_id>  (588) 
CHEMBL3750091

>  <standard_relation>  (588) 
=

>  <assay_description>  (588) 
Inhibition of human carbonic anhydrase 2

>  <published_relation>  (588) 
=

>  <standard_value>  (588) 
2800

>  <qudt_units>  (588) 
http://www.openphacts.org/units/Nanomolar

>  <target_tax_id>  (588) 
9606

>  <bao_label>  (588) 
None

>  <published_units>  (588) 
uM

>  <pchembl_value>  (588) 
5.55

>  <published_type>  (588) 
IC50

>  <activity_comment>  (588) 
None

$$$$

     RDKit          

 33 35  0  0  0  0  0  0  0  0999 V2000
    0.0000    0.0000    0.0000 N   0  0  0  0  0  0  0  0  0  0  0  0
    0.0000    0.0000    0.0000 C   0  0  0  0  0  0  0  0  0  0  0  0
    0.0000    0.0000    0.0000 O   0  0  0  0  0  0  0  0  0  0  0  0
    0.0000    0.0000    0.0000 C   0  0  0  0  0  0  0  0  0  0  0  0
    0.0000    0.0000    0.0000 C   0  0  0  0  0  0  0  0  0  0  0  0
    0.0000    0.0000    0.0000 O   0  0  0  0  0  0  0  0  0  0  0  0
    0.0000    0.0000    0.0000 C   0  0  0  0  0  0  0  0  0  0  0  0
    0.0000    0.0000    0.0000 C   0  0  0  0  0  0  0  0  0  0  0  0
    0.0000    0.0000    0.0000 C   0  0  0  0  0  0  0  0  0  0  0  0
    0.0000    0.0000    0.0000 C   0  0  0  0  0  0  0  0  0  0  0  0
    0.0000    0.0000    0.0000 F   0  0  0  0  0  0  0  0  0  0  0  0
    0.0000    0.0000    0.0000 C   0  0  0  0  0  0  0  0  0  0  0  0
    0.0000    0.0000    0.0000 N   0  0  0  0  0  0  0  0  0  0  0  0
    0.0000    0.0000    0.0000 S   0  0  0  0  0  0  0  0  0  0  0  0
    0.0000    0.0000    0.0000 O   0  0  0  0  0  0  0  0  0  0  0  0
    0.0000    0.0000    0.0000 O   0  0  0  0  0  0  0  0  0  0  0  0
    0.0000    0.0000    0.0000 N   0  0  0  0  0  0  0  0  0  0  0  0
    0.0000    0.0000    0.0000 C   0  0  0  0  0  0  0  0  0  0  0  0
    0.0000    0.0000    0.0000 C   0  0  0  0  0  0  0  0  0  0  0  0
    0.0000    0.0000    0.0000 C   0  0  0  0  0  0  0  0  0  0  0  0
    0.0000    0.0000    0.0000 F   0  0  0  0  0  0  0  0  0  0  0  0
    0.0000    0.0000    0.0000 C   0  0  0  0  0  0  0  0  0  0  0  0
    0.0000    0.0000    0.0000 F   0  0  0  0  0  0  0  0  0  0  0  0
    0.0000    0.0000    0.0000 C   0  0  0  0  0  0  0  0  0  0  0  0
    0.0000    0.0000    0.0000 N   0  0  0  0  0  0  0  0  0  0  0  0
    0.0000    0.0000    0.0000 C   0  0  0  0  0  0  0  0  0  0  0  0
    0.0000    0.0000    0.0000 C   0  0  0  0  0  0  0  0  0  0  0  0
    0.0000    0.0000    0.0000 C   0  0  0  0  0  0  0  0  0  0  0  0
    0.0000    0.0000    0.0000 C   0  0  0  0  0  0  0  0  0  0  0  0
    0.0000    0.0000    0.0000 I   0  0  0  0  0  0  0  0  0  0  0  0
    0.0000    0.0000    0.0000 C   0  0  0  0  0  0  0  0  0  0  0  0
    0.0000    0.0000    0.0000 C   0  0  0  0  0  0  0  0  0  0  0  0
    0.0000    0.0000    0.0000 F   0  0  0  0  0  0  0  0  0  0  0  0
  1  2  1  0
  2  3  2  0
  2  4  1  0
  4  5  2  0
  5  6  1  0
  6  7  1  0
  7  8  2  0
  8  9  1  0
  9 10  2  0
 10 11  1  0
 10 12  1  0
 12 13  1  0
 13 14  1  0
 14 15  2  0
 14 16  2  0
 14 17  1  0
 12 18  2  0
  5 19  1  0
 19 20  2  0
 20 21  1  0
 20 22  1  0
 22 23  1  0
 22 24  2  0
 24 25  1  0
 25 26  1  0
 26 27  2  0
 27 28  1  0
 28 29  2  0
 29 30  1  0
 29 31  1  0
 31 32  2  0
 32 33  1  0
 24  4  1  0
 18  7  1  0
 32 26  1  0
M  END
>  <pIC50>  (589) 
5.34

>  <ChEMBL_ID>  (589) 
CHEMBL3746559

>  <document_journal>  (589) 
Bioorg. Med. Chem. Lett.

>  <bao_endpoint>  (589) 
BAO_0000190

>  <potential_duplicate>  (589) 
None

>  <uo_units>  (589) 
UO_0000065

>  <canonical_smiles>  (589) 
NC(=O)c1c(Oc2ccc(F)c(NS(=O)(=O)N)c2)cc(F)c(F)c1Nc3ccc(I)cc3F

>  <parent_molecule_chembl_id>  (589) 
CHEMBL3746559

>  <assay_type>  (589) 
B

>  <src_id>  (589) 
1

>  <ligand_efficiency>  (589) 
None

>  <standard_flag>  (589) 
True

>  <molecule_chembl_id>  (589) 
CHEMBL3746559

>  <target_organism>  (589) 
Homo sapiens

>  <standard_units>  (589) 
nM

>  <record_id>  (589) 
2742529

>  <document_chembl_id>  (589) 
CHEMBL3745607

>  <bao_format>  (589) 
None

>  <data_validity_description>  (589) 
None

>  <activity_id>  (589) 
16423289

>  <standard_type>  (589) 
IC50

>  <target_chembl_id>  (589) 
CHEMBL205

>  <data_validity_comment>  (589) 
None

>  <published_value>  (589) 
4.6

>  <document_year>  (589) 
2016

>  <target_pref_name>  (589) 
Carbonic anhydrase II

>  <assay_chembl_id>  (589) 
CHEMBL3750091

>  <standard_relation>  (589) 
=

>  <assay_description>  (589) 
Inhibition of human carbonic anhydrase 2

>  <published_relation>  (589) 
=

>  <standard_value>  (589) 
4600

>  <qudt_units>  (589) 
http://www.openphacts.org/units/Nanomolar

>  <target_tax_id>  (589) 
9606

>  <bao_label>  (589) 
None

>  <published_units>  (589) 
uM

>  <pchembl_value>  (589) 
5.34

>  <published_type>  (589) 
IC50

>  <activity_comment>  (589) 
None

$$$$

     RDKit          

 33 35  0  0  0  0  0  0  0  0999 V2000
    0.0000    0.0000    0.0000 N   0  0  0  0  0  0  0  0  0  0  0  0
    0.0000    0.0000    0.0000 C   0  0  0  0  0  0  0  0  0  0  0  0
    0.0000    0.0000    0.0000 O   0  0  0  0  0  0  0  0  0  0  0  0
    0.0000    0.0000    0.0000 C   0  0  0  0  0  0  0  0  0  0  0  0
    0.0000    0.0000    0.0000 C   0  0  0  0  0  0  0  0  0  0  0  0
    0.0000    0.0000    0.0000 O   0  0  0  0  0  0  0  0  0  0  0  0
    0.0000    0.0000    0.0000 C   0  0  0  0  0  0  0  0  0  0  0  0
    0.0000    0.0000    0.0000 C   0  0  0  0  0  0  0  0  0  0  0  0
    0.0000    0.0000    0.0000 C   0  0  0  0  0  0  0  0  0  0  0  0
    0.0000    0.0000    0.0000 C   0  0  0  0  0  0  0  0  0  0  0  0
    0.0000    0.0000    0.0000 C   0  0  0  0  0  0  0  0  0  0  0  0
    0.0000    0.0000    0.0000 C   0  0  0  0  0  0  0  0  0  0  0  0
    0.0000    0.0000    0.0000 N   0  0  0  0  0  0  0  0  0  0  0  0
    0.0000    0.0000    0.0000 S   0  0  0  0  0  0  0  0  0  0  0  0
    0.0000    0.0000    0.0000 O   0  0  0  0  0  0  0  0  0  0  0  0
    0.0000    0.0000    0.0000 O   0  0  0  0  0  0  0  0  0  0  0  0
    0.0000    0.0000    0.0000 N   0  0  0  0  0  0  0  0  0  0  0  0
    0.0000    0.0000    0.0000 C   0  0  0  0  0  0  0  0  0  0  0  0
    0.0000    0.0000    0.0000 C   0  0  0  0  0  0  0  0  0  0  0  0
    0.0000    0.0000    0.0000 C   0  0  0  0  0  0  0  0  0  0  0  0
    0.0000    0.0000    0.0000 F   0  0  0  0  0  0  0  0  0  0  0  0
    0.0000    0.0000    0.0000 C   0  0  0  0  0  0  0  0  0  0  0  0
    0.0000    0.0000    0.0000 F   0  0  0  0  0  0  0  0  0  0  0  0
    0.0000    0.0000    0.0000 C   0  0  0  0  0  0  0  0  0  0  0  0
    0.0000    0.0000    0.0000 N   0  0  0  0  0  0  0  0  0  0  0  0
    0.0000    0.0000    0.0000 C   0  0  0  0  0  0  0  0  0  0  0  0
    0.0000    0.0000    0.0000 C   0  0  0  0  0  0  0  0  0  0  0  0
    0.0000    0.0000    0.0000 C   0  0  0  0  0  0  0  0  0  0  0  0
    0.0000    0.0000    0.0000 C   0  0  0  0  0  0  0  0  0  0  0  0
    0.0000    0.0000    0.0000 I   0  0  0  0  0  0  0  0  0  0  0  0
    0.0000    0.0000    0.0000 C   0  0  0  0  0  0  0  0  0  0  0  0
    0.0000    0.0000    0.0000 C   0  0  0  0  0  0  0  0  0  0  0  0
    0.0000    0.0000    0.0000 F   0  0  0  0  0  0  0  0  0  0  0  0
  1  2  1  0
  2  3  2  0
  2  4  1  0
  4  5  2  0
  5  6  1  0
  6  7  1  0
  7  8  2  0
  8  9  1  0
  9 10  2  0
 10 11  1  0
 11 12  1  0
 12 13  1  0
 13 14  1  0
 14 15  2  0
 14 16  2  0
 14 17  1  0
 11 18  2  0
  5 19  1  0
 19 20  2  0
 20 21  1  0
 20 22  1  0
 22 23  1  0
 22 24  2  0
 24 25  1  0
 25 26  1  0
 26 27  2  0
 27 28  1  0
 28 29  2  0
 29 30  1  0
 29 31  1  0
 31 32  2  0
 32 33  1  0
 24  4  1  0
 18  7  1  0
 32 26  1  0
M  END
>  <pIC50>  (590) 
5.3

>  <ChEMBL_ID>  (590) 
CHEMBL3746640

>  <document_journal>  (590) 
Bioorg. Med. Chem. Lett.

>  <bao_endpoint>  (590) 
BAO_0000190

>  <potential_duplicate>  (590) 
None

>  <uo_units>  (590) 
UO_0000065

>  <canonical_smiles>  (590) 
NC(=O)c1c(Oc2cccc(CNS(=O)(=O)N)c2)cc(F)c(F)c1Nc3ccc(I)cc3F

>  <parent_molecule_chembl_id>  (590) 
CHEMBL3746640

>  <assay_type>  (590) 
B

>  <src_id>  (590) 
1

>  <ligand_efficiency>  (590) 
None

>  <standard_flag>  (590) 
True

>  <molecule_chembl_id>  (590) 
CHEMBL3746640

>  <target_organism>  (590) 
Homo sapiens

>  <standard_units>  (590) 
nM

>  <record_id>  (590) 
2742530

>  <document_chembl_id>  (590) 
CHEMBL3745607

>  <bao_format>  (590) 
None

>  <data_validity_description>  (590) 
None

>  <activity_id>  (590) 
16423290

>  <standard_type>  (590) 
IC50

>  <target_chembl_id>  (590) 
CHEMBL205

>  <data_validity_comment>  (590) 
None

>  <published_value>  (590) 
5

>  <document_year>  (590) 
2016

>  <target_pref_name>  (590) 
Carbonic anhydrase II

>  <assay_chembl_id>  (590) 
CHEMBL3750091

>  <standard_relation>  (590) 
=

>  <assay_description>  (590) 
Inhibition of human carbonic anhydrase 2

>  <published_relation>  (590) 
=

>  <standard_value>  (590) 
5000

>  <qudt_units>  (590) 
http://www.openphacts.org/units/Nanomolar

>  <target_tax_id>  (590) 
9606

>  <bao_label>  (590) 
None

>  <published_units>  (590) 
uM

>  <pchembl_value>  (590) 
5.3

>  <published_type>  (590) 
IC50

>  <activity_comment>  (590) 
None

$$$$

     RDKit          

 32 34  0  0  0  0  0  0  0  0999 V2000
    0.0000    0.0000    0.0000 N   0  0  0  0  0  0  0  0  0  0  0  0
    0.0000    0.0000    0.0000 C   0  0  0  0  0  0  0  0  0  0  0  0
    0.0000    0.0000    0.0000 O   0  0  0  0  0  0  0  0  0  0  0  0
    0.0000    0.0000    0.0000 C   0  0  0  0  0  0  0  0  0  0  0  0
    0.0000    0.0000    0.0000 C   0  0  0  0  0  0  0  0  0  0  0  0
    0.0000    0.0000    0.0000 O   0  0  0  0  0  0  0  0  0  0  0  0
    0.0000    0.0000    0.0000 C   0  0  0  0  0  0  0  0  0  0  0  0
    0.0000    0.0000    0.0000 C   0  0  0  0  0  0  0  0  0  0  0  0
    0.0000    0.0000    0.0000 C   0  0  0  0  0  0  0  0  0  0  0  0
    0.0000    0.0000    0.0000 C   0  0  0  0  0  0  0  0  0  0  0  0
    0.0000    0.0000    0.0000 C   0  0  0  0  0  0  0  0  0  0  0  0
    0.0000    0.0000    0.0000 C   0  0  0  0  0  0  0  0  0  0  0  0
    0.0000    0.0000    0.0000 S   0  0  0  0  0  0  0  0  0  0  0  0
    0.0000    0.0000    0.0000 O   0  0  0  0  0  0  0  0  0  0  0  0
    0.0000    0.0000    0.0000 O   0  0  0  0  0  0  0  0  0  0  0  0
    0.0000    0.0000    0.0000 N   0  0  0  0  0  0  0  0  0  0  0  0
    0.0000    0.0000    0.0000 C   0  0  0  0  0  0  0  0  0  0  0  0
    0.0000    0.0000    0.0000 C   0  0  0  0  0  0  0  0  0  0  0  0
    0.0000    0.0000    0.0000 C   0  0  0  0  0  0  0  0  0  0  0  0
    0.0000    0.0000    0.0000 F   0  0  0  0  0  0  0  0  0  0  0  0
    0.0000    0.0000    0.0000 C   0  0  0  0  0  0  0  0  0  0  0  0
    0.0000    0.0000    0.0000 F   0  0  0  0  0  0  0  0  0  0  0  0
    0.0000    0.0000    0.0000 C   0  0  0  0  0  0  0  0  0  0  0  0
    0.0000    0.0000    0.0000 N   0  0  0  0  0  0  0  0  0  0  0  0
    0.0000    0.0000    0.0000 C   0  0  0  0  0  0  0  0  0  0  0  0
    0.0000    0.0000    0.0000 C   0  0  0  0  0  0  0  0  0  0  0  0
    0.0000    0.0000    0.0000 C   0  0  0  0  0  0  0  0  0  0  0  0
    0.0000    0.0000    0.0000 C   0  0  0  0  0  0  0  0  0  0  0  0
    0.0000    0.0000    0.0000 I   0  0  0  0  0  0  0  0  0  0  0  0
    0.0000    0.0000    0.0000 C   0  0  0  0  0  0  0  0  0  0  0  0
    0.0000    0.0000    0.0000 C   0  0  0  0  0  0  0  0  0  0  0  0
    0.0000    0.0000    0.0000 F   0  0  0  0  0  0  0  0  0  0  0  0
  1  2  1  0
  2  3  2  0
  2  4  1  0
  4  5  2  0
  5  6  1  0
  6  7  1  0
  7  8  2  0
  8  9  1  0
  9 10  2  0
 10 11  1  0
 11 12  1  0
 12 13  1  0
 13 14  2  0
 13 15  2  0
 13 16  1  0
 11 17  2  0
  5 18  1  0
 18 19  2  0
 19 20  1  0
 19 21  1  0
 21 22  1  0
 21 23  2  0
 23 24  1  0
 24 25  1  0
 25 26  2  0
 26 27  1  0
 27 28  2  0
 28 29  1  0
 28 30  1  0
 30 31  2  0
 31 32  1  0
 23  4  1  0
 17  7  1  0
 31 25  1  0
M  END
>  <pIC50>  (591) 
5.66

>  <ChEMBL_ID>  (591) 
CHEMBL3746031

>  <document_journal>  (591) 
Bioorg. Med. Chem. Lett.

>  <bao_endpoint>  (591) 
BAO_0000190

>  <potential_duplicate>  (591) 
None

>  <uo_units>  (591) 
UO_0000065

>  <canonical_smiles>  (591) 
NC(=O)c1c(Oc2cccc(CS(=O)(=O)N)c2)cc(F)c(F)c1Nc3ccc(I)cc3F

>  <parent_molecule_chembl_id>  (591) 
CHEMBL3746031

>  <assay_type>  (591) 
B

>  <src_id>  (591) 
1

>  <ligand_efficiency>  (591) 
None

>  <standard_flag>  (591) 
True

>  <molecule_chembl_id>  (591) 
CHEMBL3746031

>  <target_organism>  (591) 
Homo sapiens

>  <standard_units>  (591) 
nM

>  <record_id>  (591) 
2742531

>  <document_chembl_id>  (591) 
CHEMBL3745607

>  <bao_format>  (591) 
None

>  <data_validity_description>  (591) 
None

>  <activity_id>  (591) 
16423291

>  <standard_type>  (591) 
IC50

>  <target_chembl_id>  (591) 
CHEMBL205

>  <data_validity_comment>  (591) 
None

>  <published_value>  (591) 
2.2

>  <document_year>  (591) 
2016

>  <target_pref_name>  (591) 
Carbonic anhydrase II

>  <assay_chembl_id>  (591) 
CHEMBL3750091

>  <standard_relation>  (591) 
=

>  <assay_description>  (591) 
Inhibition of human carbonic anhydrase 2

>  <published_relation>  (591) 
=

>  <standard_value>  (591) 
2200

>  <qudt_units>  (591) 
http://www.openphacts.org/units/Nanomolar

>  <target_tax_id>  (591) 
9606

>  <bao_label>  (591) 
None

>  <published_units>  (591) 
uM

>  <pchembl_value>  (591) 
5.66

>  <published_type>  (591) 
IC50

>  <activity_comment>  (591) 
None

$$$$

     RDKit          

 17 18  0  0  0  0  0  0  0  0999 V2000
    0.0000    0.0000    0.0000 C   0  0  0  0  0  0  0  0  0  0  0  0
    0.0000    0.0000    0.0000 N   0  0  0  0  0  0  0  0  0  0  0  0
    0.0000    0.0000    0.0000 C   0  0  0  0  0  0  0  0  0  0  0  0
    0.0000    0.0000    0.0000 C   0  0  0  0  0  0  0  0  0  0  0  0
    0.0000    0.0000    0.0000 O   0  0  0  0  0  0  0  0  0  0  0  0
    0.0000    0.0000    0.0000 N   0  0  0  0  0  0  0  0  0  0  0  0
    0.0000    0.0000    0.0000 C   0  0  0  0  0  0  0  0  0  0  0  0
    0.0000    0.0000    0.0000 C   0  0  0  0  0  0  0  0  0  0  0  0
    0.0000    0.0000    0.0000 C   0  0  0  0  0  0  0  0  0  0  0  0
    0.0000    0.0000    0.0000 C   0  0  0  0  0  0  0  0  0  0  0  0
    0.0000    0.0000    0.0000 C   0  0  0  0  0  0  0  0  0  0  0  0
    0.0000    0.0000    0.0000 C   0  0  0  0  0  0  0  0  0  0  0  0
    0.0000    0.0000    0.0000 O   0  0  0  0  0  0  0  0  0  0  0  0
    0.0000    0.0000    0.0000 C   0  0  0  0  0  0  0  0  0  0  0  0
    0.0000    0.0000    0.0000 C   0  0  0  0  0  0  0  0  0  0  0  0
    0.0000    0.0000    0.0000 C   0  0  0  0  0  0  0  0  0  0  0  0
    0.0000    0.0000    0.0000 C   0  0  0  0  0  0  0  0  0  0  0  0
  1  2  1  0
  2  3  1  0
  2  4  1  0
  4  5  2  0
  4  6  1  0
  6  7  1  0
  7  8  1  0
  8  9  1  0
  9 10  1  0
 10 11  2  0
 11 12  1  0
 12 13  1  0
 12 14  2  0
 14 15  1  0
 15 16  2  0
 16 17  1  0
 17  7  1  0
 16 10  1  0
M  END
>  <pIC50>  (592) 
7.28

>  <ChEMBL_ID>  (592) 
CHEMBL3785391

>  <document_journal>  (592) 
Bioorg. Med. Chem.

>  <bao_endpoint>  (592) 
BAO_0000190

>  <potential_duplicate>  (592) 
None

>  <uo_units>  (592) 
UO_0000065

>  <canonical_smiles>  (592) 
CN(C)C(=O)NC1CCc2cc(O)ccc2C1

>  <parent_molecule_chembl_id>  (592) 
CHEMBL3785391

>  <assay_type>  (592) 
B

>  <src_id>  (592) 
1

>  <ligand_efficiency>  (592) 
None

>  <standard_flag>  (592) 
True

>  <molecule_chembl_id>  (592) 
CHEMBL3785391

>  <target_organism>  (592) 
Homo sapiens

>  <standard_units>  (592) 
nM

>  <record_id>  (592) 
2769542

>  <document_chembl_id>  (592) 
CHEMBL3784977

>  <bao_format>  (592) 
None

>  <data_validity_description>  (592) 
None

>  <activity_id>  (592) 
16543631

>  <standard_type>  (592) 
IC50

>  <target_chembl_id>  (592) 
CHEMBL205

>  <data_validity_comment>  (592) 
None

>  <published_value>  (592) 
52.08

>  <document_year>  (592) 
2016

>  <target_pref_name>  (592) 
Carbonic anhydrase II

>  <assay_chembl_id>  (592) 
CHEMBL3789778

>  <standard_relation>  (592) 
=

>  <assay_description>  (592) 
Inhibition of human carbonic anhydrase 2 using 4-nitrophenylacetate as substrate by spectrophotometric analysis

>  <published_relation>  (592) 
=

>  <standard_value>  (592) 
52.08

>  <qudt_units>  (592) 
http://www.openphacts.org/units/Nanomolar

>  <target_tax_id>  (592) 
9606

>  <bao_label>  (592) 
None

>  <published_units>  (592) 
nM

>  <pchembl_value>  (592) 
7.28

>  <published_type>  (592) 
IC50

>  <activity_comment>  (592) 
None

$$$$

     RDKit          

 17 18  0  0  0  0  0  0  0  0999 V2000
    0.0000    0.0000    0.0000 C   0  0  0  0  0  0  0  0  0  0  0  0
    0.0000    0.0000    0.0000 N   0  0  0  0  0  0  0  0  0  0  0  0
    0.0000    0.0000    0.0000 C   0  0  0  0  0  0  0  0  0  0  0  0
    0.0000    0.0000    0.0000 C   0  0  0  0  0  0  0  0  0  0  0  0
    0.0000    0.0000    0.0000 O   0  0  0  0  0  0  0  0  0  0  0  0
    0.0000    0.0000    0.0000 N   0  0  0  0  0  0  0  0  0  0  0  0
    0.0000    0.0000    0.0000 C   0  0  0  0  0  0  0  0  0  0  0  0
    0.0000    0.0000    0.0000 C   0  0  0  0  0  0  0  0  0  0  0  0
    0.0000    0.0000    0.0000 C   0  0  0  0  0  0  0  0  0  0  0  0
    0.0000    0.0000    0.0000 C   0  0  0  0  0  0  0  0  0  0  0  0
    0.0000    0.0000    0.0000 C   0  0  0  0  0  0  0  0  0  0  0  0
    0.0000    0.0000    0.0000 O   0  0  0  0  0  0  0  0  0  0  0  0
    0.0000    0.0000    0.0000 C   0  0  0  0  0  0  0  0  0  0  0  0
    0.0000    0.0000    0.0000 C   0  0  0  0  0  0  0  0  0  0  0  0
    0.0000    0.0000    0.0000 C   0  0  0  0  0  0  0  0  0  0  0  0
    0.0000    0.0000    0.0000 C   0  0  0  0  0  0  0  0  0  0  0  0
    0.0000    0.0000    0.0000 C   0  0  0  0  0  0  0  0  0  0  0  0
  1  2  1  0
  2  3  1  0
  2  4  1  0
  4  5  2  0
  4  6  1  0
  6  7  1  0
  7  8  1  0
  8  9  1  0
  9 10  1  0
 10 11  2  0
 11 12  1  0
 11 13  1  0
 13 14  2  0
 14 15  1  0
 15 16  2  0
 16 17  1  0
 17  7  1  0
 16 10  1  0
M  END
>  <pIC50>  (593) 
7.13

>  <ChEMBL_ID>  (593) 
CHEMBL3786937

>  <document_journal>  (593) 
Bioorg. Med. Chem.

>  <bao_endpoint>  (593) 
BAO_0000190

>  <potential_duplicate>  (593) 
None

>  <uo_units>  (593) 
UO_0000065

>  <canonical_smiles>  (593) 
CN(C)C(=O)N[C@H]1CCc2c(O)cccc2C1

>  <parent_molecule_chembl_id>  (593) 
CHEMBL3786937

>  <assay_type>  (593) 
B

>  <src_id>  (593) 
1

>  <ligand_efficiency>  (593) 
None

>  <standard_flag>  (593) 
True

>  <molecule_chembl_id>  (593) 
CHEMBL3786937

>  <target_organism>  (593) 
Homo sapiens

>  <standard_units>  (593) 
nM

>  <record_id>  (593) 
2769541

>  <document_chembl_id>  (593) 
CHEMBL3784977

>  <bao_format>  (593) 
None

>  <data_validity_description>  (593) 
None

>  <activity_id>  (593) 
16543632

>  <standard_type>  (593) 
IC50

>  <target_chembl_id>  (593) 
CHEMBL205

>  <data_validity_comment>  (593) 
None

>  <published_value>  (593) 
74.69

>  <document_year>  (593) 
2016

>  <target_pref_name>  (593) 
Carbonic anhydrase II

>  <assay_chembl_id>  (593) 
CHEMBL3789778

>  <standard_relation>  (593) 
=

>  <assay_description>  (593) 
Inhibition of human carbonic anhydrase 2 using 4-nitrophenylacetate as substrate by spectrophotometric analysis

>  <published_relation>  (593) 
=

>  <standard_value>  (593) 
74.69

>  <qudt_units>  (593) 
http://www.openphacts.org/units/Nanomolar

>  <target_tax_id>  (593) 
9606

>  <bao_label>  (593) 
None

>  <published_units>  (593) 
nM

>  <pchembl_value>  (593) 
7.13

>  <published_type>  (593) 
IC50

>  <activity_comment>  (593) 
None

$$$$

     RDKit          

 19 20  0  0  0  0  0  0  0  0999 V2000
    0.0000    0.0000    0.0000 C   0  0  0  0  0  0  0  0  0  0  0  0
    0.0000    0.0000    0.0000 O   0  0  0  0  0  0  0  0  0  0  0  0
    0.0000    0.0000    0.0000 C   0  0  0  0  0  0  0  0  0  0  0  0
    0.0000    0.0000    0.0000 C   0  0  0  0  0  0  0  0  0  0  0  0
    0.0000    0.0000    0.0000 C   0  0  0  0  0  0  0  0  0  0  0  0
    0.0000    0.0000    0.0000 C   0  0  0  0  0  0  0  0  0  0  0  0
    0.0000    0.0000    0.0000 C   0  0  0  0  0  0  0  0  0  0  0  0
    0.0000    0.0000    0.0000 C   0  0  0  0  0  0  0  0  0  0  0  0
    0.0000    0.0000    0.0000 C   0  0  0  0  0  0  0  0  0  0  0  0
    0.0000    0.0000    0.0000 C   0  0  0  0  0  0  0  0  0  0  0  0
    0.0000    0.0000    0.0000 C   0  0  0  0  0  0  0  0  0  0  0  0
    0.0000    0.0000    0.0000 C   0  0  0  0  0  0  0  0  0  0  0  0
    0.0000    0.0000    0.0000 N   0  0  0  0  0  0  0  0  0  0  0  0
    0.0000    0.0000    0.0000 S   0  0  0  0  0  0  0  0  0  0  0  0
    0.0000    0.0000    0.0000 O   0  0  0  0  0  0  0  0  0  0  0  0
    0.0000    0.0000    0.0000 O   0  0  0  0  0  0  0  0  0  0  0  0
    0.0000    0.0000    0.0000 N   0  0  0  0  0  0  0  0  0  0  0  0
    0.0000    0.0000    0.0000 C   0  0  0  0  0  0  0  0  0  0  0  0
    0.0000    0.0000    0.0000 C   0  0  0  0  0  0  0  0  0  0  0  0
  1  2  1  0
  2  3  1  0
  3  4  2  0
  4  5  1  0
  5  6  2  0
  6  7  1  0
  7  8  1  0
  8  9  1  0
  9 10  1  0
 10 11  1  0
 11 12  2  0
  9 13  1  0
 13 14  1  0
 14 15  2  0
 14 16  2  0
 14 17  1  0
 17 18  1  0
 17 19  1  0
 12  3  1  0
 11  6  1  0
M  END
>  <pIC50>  (594) 
8.06

>  <ChEMBL_ID>  (594) 
CHEMBL3786448

>  <document_journal>  (594) 
Bioorg. Med. Chem.

>  <bao_endpoint>  (594) 
BAO_0000190

>  <potential_duplicate>  (594) 
None

>  <uo_units>  (594) 
UO_0000065

>  <canonical_smiles>  (594) 
COc1ccc2CCC(Cc2c1)NS(=O)(=O)N(C)C

>  <parent_molecule_chembl_id>  (594) 
CHEMBL3786448

>  <assay_type>  (594) 
B

>  <src_id>  (594) 
1

>  <ligand_efficiency>  (594) 
None

>  <standard_flag>  (594) 
True

>  <molecule_chembl_id>  (594) 
CHEMBL3786448

>  <target_organism>  (594) 
Homo sapiens

>  <standard_units>  (594) 
nM

>  <record_id>  (594) 
2769540

>  <document_chembl_id>  (594) 
CHEMBL3784977

>  <bao_format>  (594) 
None

>  <data_validity_description>  (594) 
None

>  <activity_id>  (594) 
16543633

>  <standard_type>  (594) 
IC50

>  <target_chembl_id>  (594) 
CHEMBL205

>  <data_validity_comment>  (594) 
None

>  <published_value>  (594) 
8.66

>  <document_year>  (594) 
2016

>  <target_pref_name>  (594) 
Carbonic anhydrase II

>  <assay_chembl_id>  (594) 
CHEMBL3789778

>  <standard_relation>  (594) 
=

>  <assay_description>  (594) 
Inhibition of human carbonic anhydrase 2 using 4-nitrophenylacetate as substrate by spectrophotometric analysis

>  <published_relation>  (594) 
=

>  <standard_value>  (594) 
8.66

>  <qudt_units>  (594) 
http://www.openphacts.org/units/Nanomolar

>  <target_tax_id>  (594) 
9606

>  <bao_label>  (594) 
None

>  <published_units>  (594) 
nM

>  <pchembl_value>  (594) 
8.06

>  <published_type>  (594) 
IC50

>  <activity_comment>  (594) 
None

$$$$

     RDKit          

 19 20  0  0  0  0  0  0  0  0999 V2000
    0.0000    0.0000    0.0000 C   0  0  0  0  0  0  0  0  0  0  0  0
    0.0000    0.0000    0.0000 O   0  0  0  0  0  0  0  0  0  0  0  0
    0.0000    0.0000    0.0000 C   0  0  0  0  0  0  0  0  0  0  0  0
    0.0000    0.0000    0.0000 C   0  0  0  0  0  0  0  0  0  0  0  0
    0.0000    0.0000    0.0000 C   0  0  0  0  0  0  0  0  0  0  0  0
    0.0000    0.0000    0.0000 C   0  0  0  0  0  0  0  0  0  0  0  0
    0.0000    0.0000    0.0000 C   0  0  0  0  0  0  0  0  0  0  0  0
    0.0000    0.0000    0.0000 C   0  0  0  0  0  0  0  0  0  0  0  0
    0.0000    0.0000    0.0000 C   0  0  0  0  0  0  0  0  0  0  0  0
    0.0000    0.0000    0.0000 C   0  0  0  0  0  0  0  0  0  0  0  0
    0.0000    0.0000    0.0000 C   0  0  0  0  0  0  0  0  0  0  0  0
    0.0000    0.0000    0.0000 C   0  0  0  0  0  0  0  0  0  0  0  0
    0.0000    0.0000    0.0000 N   0  0  0  0  0  0  0  0  0  0  0  0
    0.0000    0.0000    0.0000 S   0  0  0  0  0  0  0  0  0  0  0  0
    0.0000    0.0000    0.0000 O   0  0  0  0  0  0  0  0  0  0  0  0
    0.0000    0.0000    0.0000 O   0  0  0  0  0  0  0  0  0  0  0  0
    0.0000    0.0000    0.0000 N   0  0  0  0  0  0  0  0  0  0  0  0
    0.0000    0.0000    0.0000 C   0  0  0  0  0  0  0  0  0  0  0  0
    0.0000    0.0000    0.0000 C   0  0  0  0  0  0  0  0  0  0  0  0
  1  2  1  0
  2  3  1  0
  3  4  2  0
  4  5  1  0
  5  6  2  0
  6  7  1  0
  7  8  1  0
  8  9  1  0
  9 10  1  0
 10 11  1  0
 11 12  2  0
  8 13  1  0
 13 14  1  0
 14 15  2  0
 14 16  2  0
 14 17  1  0
 17 18  1  0
 17 19  1  0
 12  3  1  0
 11  6  1  0
M  END
>  <pIC50>  (595) 
8.08

>  <ChEMBL_ID>  (595) 
CHEMBL3787223

>  <document_journal>  (595) 
Bioorg. Med. Chem.

>  <bao_endpoint>  (595) 
BAO_0000190

>  <potential_duplicate>  (595) 
None

>  <uo_units>  (595) 
UO_0000065

>  <canonical_smiles>  (595) 
COc1ccc2CC(CCc2c1)NS(=O)(=O)N(C)C

>  <parent_molecule_chembl_id>  (595) 
CHEMBL3787223

>  <assay_type>  (595) 
B

>  <src_id>  (595) 
1

>  <ligand_efficiency>  (595) 
None

>  <standard_flag>  (595) 
True

>  <molecule_chembl_id>  (595) 
CHEMBL3787223

>  <target_organism>  (595) 
Homo sapiens

>  <standard_units>  (595) 
nM

>  <record_id>  (595) 
2769539

>  <document_chembl_id>  (595) 
CHEMBL3784977

>  <bao_format>  (595) 
None

>  <data_validity_description>  (595) 
None

>  <activity_id>  (595) 
16543634

>  <standard_type>  (595) 
IC50

>  <target_chembl_id>  (595) 
CHEMBL205

>  <data_validity_comment>  (595) 
None

>  <published_value>  (595) 
8.25

>  <document_year>  (595) 
2016

>  <target_pref_name>  (595) 
Carbonic anhydrase II

>  <assay_chembl_id>  (595) 
CHEMBL3789778

>  <standard_relation>  (595) 
=

>  <assay_description>  (595) 
Inhibition of human carbonic anhydrase 2 using 4-nitrophenylacetate as substrate by spectrophotometric analysis

>  <published_relation>  (595) 
=

>  <standard_value>  (595) 
8.25

>  <qudt_units>  (595) 
http://www.openphacts.org/units/Nanomolar

>  <target_tax_id>  (595) 
9606

>  <bao_label>  (595) 
None

>  <published_units>  (595) 
nM

>  <pchembl_value>  (595) 
8.08

>  <published_type>  (595) 
IC50

>  <activity_comment>  (595) 
None

$$$$

     RDKit          

 19 20  0  0  0  0  0  0  0  0999 V2000
    0.0000    0.0000    0.0000 C   0  0  0  0  0  0  0  0  0  0  0  0
    0.0000    0.0000    0.0000 O   0  0  0  0  0  0  0  0  0  0  0  0
    0.0000    0.0000    0.0000 C   0  0  0  0  0  0  0  0  0  0  0  0
    0.0000    0.0000    0.0000 C   0  0  0  0  0  0  0  0  0  0  0  0
    0.0000    0.0000    0.0000 C   0  0  0  0  0  0  0  0  0  0  0  0
    0.0000    0.0000    0.0000 C   0  0  0  0  0  0  0  0  0  0  0  0
    0.0000    0.0000    0.0000 C   0  0  0  0  0  0  0  0  0  0  0  0
    0.0000    0.0000    0.0000 C   0  0  0  0  0  0  0  0  0  0  0  0
    0.0000    0.0000    0.0000 C   0  0  0  0  0  0  0  0  0  0  0  0
    0.0000    0.0000    0.0000 C   0  0  0  0  0  0  0  0  0  0  0  0
    0.0000    0.0000    0.0000 C   0  0  0  0  0  0  0  0  0  0  0  0
    0.0000    0.0000    0.0000 C   0  0  0  0  0  0  0  0  0  0  0  0
    0.0000    0.0000    0.0000 N   0  0  0  0  0  0  0  0  0  0  0  0
    0.0000    0.0000    0.0000 S   0  0  0  0  0  0  0  0  0  0  0  0
    0.0000    0.0000    0.0000 O   0  0  0  0  0  0  0  0  0  0  0  0
    0.0000    0.0000    0.0000 O   0  0  0  0  0  0  0  0  0  0  0  0
    0.0000    0.0000    0.0000 N   0  0  0  0  0  0  0  0  0  0  0  0
    0.0000    0.0000    0.0000 C   0  0  0  0  0  0  0  0  0  0  0  0
    0.0000    0.0000    0.0000 C   0  0  0  0  0  0  0  0  0  0  0  0
  1  2  1  0
  2  3  1  0
  3  4  2  0
  4  5  1  0
  5  6  2  0
  6  7  1  0
  7  8  1  0
  8  9  1  0
  9 10  1  0
 10 11  1  0
 11 12  1  0
  9 13  1  0
 13 14  1  0
 14 15  2  0
 14 16  2  0
 14 17  1  0
 17 18  1  0
 17 19  1  0
 12  3  1  0
 12  7  2  0
M  END
>  <pIC50>  (596) 
7.15

>  <ChEMBL_ID>  (596) 
CHEMBL3785269

>  <document_journal>  (596) 
Bioorg. Med. Chem.

>  <bao_endpoint>  (596) 
BAO_0000190

>  <potential_duplicate>  (596) 
None

>  <uo_units>  (596) 
UO_0000065

>  <canonical_smiles>  (596) 
COc1cccc2CC(CCc12)NS(=O)(=O)N(C)C

>  <parent_molecule_chembl_id>  (596) 
CHEMBL3785269

>  <assay_type>  (596) 
B

>  <src_id>  (596) 
1

>  <ligand_efficiency>  (596) 
None

>  <standard_flag>  (596) 
True

>  <molecule_chembl_id>  (596) 
CHEMBL3785269

>  <target_organism>  (596) 
Homo sapiens

>  <standard_units>  (596) 
nM

>  <record_id>  (596) 
2769538

>  <document_chembl_id>  (596) 
CHEMBL3784977

>  <bao_format>  (596) 
None

>  <data_validity_description>  (596) 
None

>  <activity_id>  (596) 
16543635

>  <standard_type>  (596) 
IC50

>  <target_chembl_id>  (596) 
CHEMBL205

>  <data_validity_comment>  (596) 
None

>  <published_value>  (596) 
70.44

>  <document_year>  (596) 
2016

>  <target_pref_name>  (596) 
Carbonic anhydrase II

>  <assay_chembl_id>  (596) 
CHEMBL3789778

>  <standard_relation>  (596) 
=

>  <assay_description>  (596) 
Inhibition of human carbonic anhydrase 2 using 4-nitrophenylacetate as substrate by spectrophotometric analysis

>  <published_relation>  (596) 
=

>  <standard_value>  (596) 
70.44

>  <qudt_units>  (596) 
http://www.openphacts.org/units/Nanomolar

>  <target_tax_id>  (596) 
9606

>  <bao_label>  (596) 
None

>  <published_units>  (596) 
nM

>  <pchembl_value>  (596) 
7.15

>  <published_type>  (596) 
IC50

>  <activity_comment>  (596) 
None

$$$$

     RDKit          

 18 19  0  0  0  0  0  0  0  0999 V2000
    0.0000    0.0000    0.0000 C   0  0  0  0  0  0  0  0  0  0  0  0
    0.0000    0.0000    0.0000 O   0  0  0  0  0  0  0  0  0  0  0  0
    0.0000    0.0000    0.0000 C   0  0  0  0  0  0  0  0  0  0  0  0
    0.0000    0.0000    0.0000 C   0  0  0  0  0  0  0  0  0  0  0  0
    0.0000    0.0000    0.0000 C   0  0  0  0  0  0  0  0  0  0  0  0
    0.0000    0.0000    0.0000 C   0  0  0  0  0  0  0  0  0  0  0  0
    0.0000    0.0000    0.0000 C   0  0  0  0  0  0  0  0  0  0  0  0
    0.0000    0.0000    0.0000 C   0  0  0  0  0  0  0  0  0  0  0  0
    0.0000    0.0000    0.0000 C   0  0  0  0  0  0  0  0  0  0  0  0
    0.0000    0.0000    0.0000 C   0  0  0  0  0  0  0  0  0  0  0  0
    0.0000    0.0000    0.0000 C   0  0  0  0  0  0  0  0  0  0  0  0
    0.0000    0.0000    0.0000 C   0  0  0  0  0  0  0  0  0  0  0  0
    0.0000    0.0000    0.0000 N   0  0  0  0  0  0  0  0  0  0  0  0
    0.0000    0.0000    0.0000 C   0  0  0  0  0  0  0  0  0  0  0  0
    0.0000    0.0000    0.0000 O   0  0  0  0  0  0  0  0  0  0  0  0
    0.0000    0.0000    0.0000 N   0  0  0  0  0  0  0  0  0  0  0  0
    0.0000    0.0000    0.0000 C   0  0  0  0  0  0  0  0  0  0  0  0
    0.0000    0.0000    0.0000 C   0  0  0  0  0  0  0  0  0  0  0  0
  1  2  1  0
  2  3  1  0
  3  4  2  0
  4  5  1  0
  5  6  2  0
  6  7  1  0
  7  8  1  0
  8  9  1  0
  9 10  1  0
 10 11  1  0
 11 12  2  0
  9 13  1  0
 13 14  1  0
 14 15  2  0
 14 16  1  0
 16 17  1  0
 16 18  1  0
 12  3  1  0
 11  6  1  0
M  END
>  <pIC50>  (597) 
8.03

>  <ChEMBL_ID>  (597) 
CHEMBL3787502

>  <document_journal>  (597) 
Bioorg. Med. Chem.

>  <bao_endpoint>  (597) 
BAO_0000190

>  <potential_duplicate>  (597) 
None

>  <uo_units>  (597) 
UO_0000065

>  <canonical_smiles>  (597) 
COc1ccc2CC[C@@H](Cc2c1)NC(=O)N(C)C

>  <parent_molecule_chembl_id>  (597) 
CHEMBL3787502

>  <assay_type>  (597) 
B

>  <src_id>  (597) 
1

>  <ligand_efficiency>  (597) 
None

>  <standard_flag>  (597) 
True

>  <molecule_chembl_id>  (597) 
CHEMBL3787502

>  <target_organism>  (597) 
Homo sapiens

>  <standard_units>  (597) 
nM

>  <record_id>  (597) 
2769537

>  <document_chembl_id>  (597) 
CHEMBL3784977

>  <bao_format>  (597) 
None

>  <data_validity_description>  (597) 
None

>  <activity_id>  (597) 
16543636

>  <standard_type>  (597) 
IC50

>  <target_chembl_id>  (597) 
CHEMBL205

>  <data_validity_comment>  (597) 
None

>  <published_value>  (597) 
9.27

>  <document_year>  (597) 
2016

>  <target_pref_name>  (597) 
Carbonic anhydrase II

>  <assay_chembl_id>  (597) 
CHEMBL3789778

>  <standard_relation>  (597) 
=

>  <assay_description>  (597) 
Inhibition of human carbonic anhydrase 2 using 4-nitrophenylacetate as substrate by spectrophotometric analysis

>  <published_relation>  (597) 
=

>  <standard_value>  (597) 
9.27

>  <qudt_units>  (597) 
http://www.openphacts.org/units/Nanomolar

>  <target_tax_id>  (597) 
9606

>  <bao_label>  (597) 
None

>  <published_units>  (597) 
nM

>  <pchembl_value>  (597) 
8.03

>  <published_type>  (597) 
IC50

>  <activity_comment>  (597) 
None

$$$$

     RDKit          

 18 19  0  0  0  0  0  0  0  0999 V2000
    0.0000    0.0000    0.0000 C   0  0  0  0  0  0  0  0  0  0  0  0
    0.0000    0.0000    0.0000 O   0  0  0  0  0  0  0  0  0  0  0  0
    0.0000    0.0000    0.0000 C   0  0  0  0  0  0  0  0  0  0  0  0
    0.0000    0.0000    0.0000 C   0  0  0  0  0  0  0  0  0  0  0  0
    0.0000    0.0000    0.0000 C   0  0  0  0  0  0  0  0  0  0  0  0
    0.0000    0.0000    0.0000 C   0  0  0  0  0  0  0  0  0  0  0  0
    0.0000    0.0000    0.0000 C   0  0  0  0  0  0  0  0  0  0  0  0
    0.0000    0.0000    0.0000 C   0  0  0  0  0  0  0  0  0  0  0  0
    0.0000    0.0000    0.0000 C   0  0  0  0  0  0  0  0  0  0  0  0
    0.0000    0.0000    0.0000 C   0  0  0  0  0  0  0  0  0  0  0  0
    0.0000    0.0000    0.0000 C   0  0  0  0  0  0  0  0  0  0  0  0
    0.0000    0.0000    0.0000 C   0  0  0  0  0  0  0  0  0  0  0  0
    0.0000    0.0000    0.0000 N   0  0  0  0  0  0  0  0  0  0  0  0
    0.0000    0.0000    0.0000 C   0  0  0  0  0  0  0  0  0  0  0  0
    0.0000    0.0000    0.0000 O   0  0  0  0  0  0  0  0  0  0  0  0
    0.0000    0.0000    0.0000 N   0  0  0  0  0  0  0  0  0  0  0  0
    0.0000    0.0000    0.0000 C   0  0  0  0  0  0  0  0  0  0  0  0
    0.0000    0.0000    0.0000 C   0  0  0  0  0  0  0  0  0  0  0  0
  1  2  1  0
  2  3  1  0
  3  4  2  0
  4  5  1  0
  5  6  2  0
  6  7  1  0
  7  8  1  0
  8  9  1  0
  9 10  1  0
 10 11  1  0
 11 12  2  0
  8 13  1  0
 13 14  1  0
 14 15  2  0
 14 16  1  0
 16 17  1  0
 16 18  1  0
 12  3  1  0
 11  6  1  0
M  END
>  <pIC50>  (598) 
7.93

>  <ChEMBL_ID>  (598) 
CHEMBL3786516

>  <document_journal>  (598) 
Bioorg. Med. Chem.

>  <bao_endpoint>  (598) 
BAO_0000190

>  <potential_duplicate>  (598) 
None

>  <uo_units>  (598) 
UO_0000065

>  <canonical_smiles>  (598) 
COc1ccc2CC(CCc2c1)NC(=O)N(C)C

>  <parent_molecule_chembl_id>  (598) 
CHEMBL3786516

>  <assay_type>  (598) 
B

>  <src_id>  (598) 
1

>  <ligand_efficiency>  (598) 
None

>  <standard_flag>  (598) 
True

>  <molecule_chembl_id>  (598) 
CHEMBL3786516

>  <target_organism>  (598) 
Homo sapiens

>  <standard_units>  (598) 
nM

>  <record_id>  (598) 
2769536

>  <document_chembl_id>  (598) 
CHEMBL3784977

>  <bao_format>  (598) 
None

>  <data_validity_description>  (598) 
None

>  <activity_id>  (598) 
16543637

>  <standard_type>  (598) 
IC50

>  <target_chembl_id>  (598) 
CHEMBL205

>  <data_validity_comment>  (598) 
None

>  <published_value>  (598) 
11.67

>  <document_year>  (598) 
2016

>  <target_pref_name>  (598) 
Carbonic anhydrase II

>  <assay_chembl_id>  (598) 
CHEMBL3789778

>  <standard_relation>  (598) 
=

>  <assay_description>  (598) 
Inhibition of human carbonic anhydrase 2 using 4-nitrophenylacetate as substrate by spectrophotometric analysis

>  <published_relation>  (598) 
=

>  <standard_value>  (598) 
11.67

>  <qudt_units>  (598) 
http://www.openphacts.org/units/Nanomolar

>  <target_tax_id>  (598) 
9606

>  <bao_label>  (598) 
None

>  <published_units>  (598) 
nM

>  <pchembl_value>  (598) 
7.93

>  <published_type>  (598) 
IC50

>  <activity_comment>  (598) 
None

$$$$

     RDKit          

 18 19  0  0  0  0  0  0  0  0999 V2000
    0.0000    0.0000    0.0000 C   0  0  0  0  0  0  0  0  0  0  0  0
    0.0000    0.0000    0.0000 O   0  0  0  0  0  0  0  0  0  0  0  0
    0.0000    0.0000    0.0000 C   0  0  0  0  0  0  0  0  0  0  0  0
    0.0000    0.0000    0.0000 C   0  0  0  0  0  0  0  0  0  0  0  0
    0.0000    0.0000    0.0000 C   0  0  0  0  0  0  0  0  0  0  0  0
    0.0000    0.0000    0.0000 C   0  0  0  0  0  0  0  0  0  0  0  0
    0.0000    0.0000    0.0000 C   0  0  0  0  0  0  0  0  0  0  0  0
    0.0000    0.0000    0.0000 C   0  0  0  0  0  0  0  0  0  0  0  0
    0.0000    0.0000    0.0000 C   0  0  0  0  0  0  0  0  0  0  0  0
    0.0000    0.0000    0.0000 C   0  0  0  0  0  0  0  0  0  0  0  0
    0.0000    0.0000    0.0000 C   0  0  0  0  0  0  0  0  0  0  0  0
    0.0000    0.0000    0.0000 C   0  0  0  0  0  0  0  0  0  0  0  0
    0.0000    0.0000    0.0000 N   0  0  0  0  0  0  0  0  0  0  0  0
    0.0000    0.0000    0.0000 C   0  0  0  0  0  0  0  0  0  0  0  0
    0.0000    0.0000    0.0000 O   0  0  0  0  0  0  0  0  0  0  0  0
    0.0000    0.0000    0.0000 N   0  0  0  0  0  0  0  0  0  0  0  0
    0.0000    0.0000    0.0000 C   0  0  0  0  0  0  0  0  0  0  0  0
    0.0000    0.0000    0.0000 C   0  0  0  0  0  0  0  0  0  0  0  0
  1  2  1  0
  2  3  1  0
  3  4  2  0
  4  5  1  0
  5  6  2  0
  6  7  1  0
  7  8  1  0
  8  9  1  0
  9 10  1  0
 10 11  1  0
 11 12  1  0
  9 13  1  0
 13 14  1  0
 14 15  2  0
 14 16  1  0
 16 17  1  0
 16 18  1  0
 12  3  1  0
 12  7  2  0
M  END
>  <pIC50>  (599) 
7.76

>  <ChEMBL_ID>  (599) 
CHEMBL3786651

>  <document_journal>  (599) 
Bioorg. Med. Chem.

>  <bao_endpoint>  (599) 
BAO_0000190

>  <potential_duplicate>  (599) 
None

>  <uo_units>  (599) 
UO_0000065

>  <canonical_smiles>  (599) 
COc1cccc2C[C@H](CCc12)NC(=O)N(C)C

>  <parent_molecule_chembl_id>  (599) 
CHEMBL3786651

>  <assay_type>  (599) 
B

>  <src_id>  (599) 
1

>  <ligand_efficiency>  (599) 
None

>  <standard_flag>  (599) 
True

>  <molecule_chembl_id>  (599) 
CHEMBL3786651

>  <target_organism>  (599) 
Homo sapiens

>  <standard_units>  (599) 
nM

>  <record_id>  (599) 
2769535

>  <document_chembl_id>  (599) 
CHEMBL3784977

>  <bao_format>  (599) 
None

>  <data_validity_description>  (599) 
None

>  <activity_id>  (599) 
16543638

>  <standard_type>  (599) 
IC50

>  <target_chembl_id>  (599) 
CHEMBL205

>  <data_validity_comment>  (599) 
None

>  <published_value>  (599) 
17.42

>  <document_year>  (599) 
2016

>  <target_pref_name>  (599) 
Carbonic anhydrase II

>  <assay_chembl_id>  (599) 
CHEMBL3789778

>  <standard_relation>  (599) 
=

>  <assay_description>  (599) 
Inhibition of human carbonic anhydrase 2 using 4-nitrophenylacetate as substrate by spectrophotometric analysis

>  <published_relation>  (599) 
=

>  <standard_value>  (599) 
17.42

>  <qudt_units>  (599) 
http://www.openphacts.org/units/Nanomolar

>  <target_tax_id>  (599) 
9606

>  <bao_label>  (599) 
None

>  <published_units>  (599) 
nM

>  <pchembl_value>  (599) 
7.76

>  <published_type>  (599) 
IC50

>  <activity_comment>  (599) 
None

$$$$

     RDKit          

 17 18  0  0  0  0  0  0  0  0999 V2000
    0.0000    0.0000    0.0000 C   0  0  0  0  0  0  0  0  0  0  0  0
    0.0000    0.0000    0.0000 N   0  0  0  0  0  0  0  0  0  0  0  0
    0.0000    0.0000    0.0000 C   0  0  0  0  0  0  0  0  0  0  0  0
    0.0000    0.0000    0.0000 C   0  0  0  0  0  0  0  0  0  0  0  0
    0.0000    0.0000    0.0000 O   0  0  0  0  0  0  0  0  0  0  0  0
    0.0000    0.0000    0.0000 N   0  0  0  0  0  0  0  0  0  0  0  0
    0.0000    0.0000    0.0000 C   0  0  0  0  0  0  0  0  0  0  0  0
    0.0000    0.0000    0.0000 C   0  0  0  0  0  0  0  0  0  0  0  0
    0.0000    0.0000    0.0000 C   0  0  0  0  0  0  0  0  0  0  0  0
    0.0000    0.0000    0.0000 C   0  0  0  0  0  0  0  0  0  0  0  0
    0.0000    0.0000    0.0000 C   0  0  0  0  0  0  0  0  0  0  0  0
    0.0000    0.0000    0.0000 C   0  0  0  0  0  0  0  0  0  0  0  0
    0.0000    0.0000    0.0000 C   0  0  0  0  0  0  0  0  0  0  0  0
    0.0000    0.0000    0.0000 O   0  0  0  0  0  0  0  0  0  0  0  0
    0.0000    0.0000    0.0000 C   0  0  0  0  0  0  0  0  0  0  0  0
    0.0000    0.0000    0.0000 C   0  0  0  0  0  0  0  0  0  0  0  0
    0.0000    0.0000    0.0000 C   0  0  0  0  0  0  0  0  0  0  0  0
  1  2  1  0
  2  3  1  0
  2  4  1  0
  4  5  2  0
  4  6  1  0
  6  7  1  0
  7  8  1  0
  8  9  1  0
  9 10  1  0
 10 11  2  0
 11 12  1  0
 12 13  2  0
 13 14  1  0
 13 15  1  0
 15 16  2  0
 16 17  1  0
 17  7  1  0
 16 10  1  0
M  END
>  <pIC50>  (600) 
7.22

>  <ChEMBL_ID>  (600) 
CHEMBL3785207

>  <document_journal>  (600) 
Bioorg. Med. Chem.

>  <bao_endpoint>  (600) 
BAO_0000190

>  <potential_duplicate>  (600) 
None

>  <uo_units>  (600) 
UO_0000065

>  <canonical_smiles>  (600) 
CN(C)C(=O)N[C@H]1CCc2ccc(O)cc2C1

>  <parent_molecule_chembl_id>  (600) 
CHEMBL3785207

>  <assay_type>  (600) 
B

>  <src_id>  (600) 
1

>  <ligand_efficiency>  (600) 
None

>  <standard_flag>  (600) 
True

>  <molecule_chembl_id>  (600) 
CHEMBL3785207

>  <target_organism>  (600) 
Homo sapiens

>  <standard_units>  (600) 
nM

>  <record_id>  (600) 
2769543

>  <document_chembl_id>  (600) 
CHEMBL3784977

>  <bao_format>  (600) 
None

>  <data_validity_description>  (600) 
None

>  <activity_id>  (600) 
16543652

>  <standard_type>  (600) 
IC50

>  <target_chembl_id>  (600) 
CHEMBL205

>  <data_validity_comment>  (600) 
None

>  <published_value>  (600) 
59.7

>  <document_year>  (600) 
2016

>  <target_pref_name>  (600) 
Carbonic anhydrase II

>  <assay_chembl_id>  (600) 
CHEMBL3789778

>  <standard_relation>  (600) 
=

>  <assay_description>  (600) 
Inhibition of human carbonic anhydrase 2 using 4-nitrophenylacetate as substrate by spectrophotometric analysis

>  <published_relation>  (600) 
=

>  <standard_value>  (600) 
59.7

>  <qudt_units>  (600) 
http://www.openphacts.org/units/Nanomolar

>  <target_tax_id>  (600) 
9606

>  <bao_label>  (600) 
None

>  <published_units>  (600) 
nM

>  <pchembl_value>  (600) 
7.22

>  <published_type>  (600) 
IC50

>  <activity_comment>  (600) 
None

$$$$

     RDKit          

 18 19  0  0  0  0  0  0  0  0999 V2000
    0.0000    0.0000    0.0000 C   0  0  0  0  0  0  0  0  0  0  0  0
    0.0000    0.0000    0.0000 N   0  0  0  0  0  0  0  0  0  0  0  0
    0.0000    0.0000    0.0000 C   0  0  0  0  0  0  0  0  0  0  0  0
    0.0000    0.0000    0.0000 S   0  0  0  0  0  0  0  0  0  0  0  0
    0.0000    0.0000    0.0000 O   0  0  0  0  0  0  0  0  0  0  0  0
    0.0000    0.0000    0.0000 O   0  0  0  0  0  0  0  0  0  0  0  0
    0.0000    0.0000    0.0000 N   0  0  0  0  0  0  0  0  0  0  0  0
    0.0000    0.0000    0.0000 C   0  0  0  0  0  0  0  0  0  0  0  0
    0.0000    0.0000    0.0000 C   0  0  0  0  0  0  0  0  0  0  0  0
    0.0000    0.0000    0.0000 C   0  0  0  0  0  0  0  0  0  0  0  0
    0.0000    0.0000    0.0000 C   0  0  0  0  0  0  0  0  0  0  0  0
    0.0000    0.0000    0.0000 C   0  0  0  0  0  0  0  0  0  0  0  0
    0.0000    0.0000    0.0000 O   0  0  0  0  0  0  0  0  0  0  0  0
    0.0000    0.0000    0.0000 C   0  0  0  0  0  0  0  0  0  0  0  0
    0.0000    0.0000    0.0000 C   0  0  0  0  0  0  0  0  0  0  0  0
    0.0000    0.0000    0.0000 C   0  0  0  0  0  0  0  0  0  0  0  0
    0.0000    0.0000    0.0000 C   0  0  0  0  0  0  0  0  0  0  0  0
    0.0000    0.0000    0.0000 C   0  0  0  0  0  0  0  0  0  0  0  0
  1  2  1  0
  2  3  1  0
  2  4  1  0
  4  5  2  0
  4  6  2  0
  4  7  1  0
  7  8  1  0
  8  9  1  0
  9 10  1  0
 10 11  1  0
 11 12  2  0
 12 13  1  0
 12 14  1  0
 14 15  2  0
 15 16  1  0
 16 17  2  0
 17 18  1  0
 18  8  1  0
 17 11  1  0
M  END
>  <pIC50>  (601) 
7.81

>  <ChEMBL_ID>  (601) 
CHEMBL3786873

>  <document_journal>  (601) 
Bioorg. Med. Chem.

>  <bao_endpoint>  (601) 
BAO_0000190

>  <potential_duplicate>  (601) 
None

>  <uo_units>  (601) 
UO_0000065

>  <canonical_smiles>  (601) 
CN(C)S(=O)(=O)NC1CCc2c(O)cccc2C1

>  <parent_molecule_chembl_id>  (601) 
CHEMBL3786873

>  <assay_type>  (601) 
B

>  <src_id>  (601) 
1

>  <ligand_efficiency>  (601) 
None

>  <standard_flag>  (601) 
True

>  <molecule_chembl_id>  (601) 
CHEMBL3786873

>  <target_organism>  (601) 
Homo sapiens

>  <standard_units>  (601) 
nM

>  <record_id>  (601) 
2769544

>  <document_chembl_id>  (601) 
CHEMBL3784977

>  <bao_format>  (601) 
None

>  <data_validity_description>  (601) 
None

>  <activity_id>  (601) 
16543653

>  <standard_type>  (601) 
IC50

>  <target_chembl_id>  (601) 
CHEMBL205

>  <data_validity_comment>  (601) 
None

>  <published_value>  (601) 
15.35

>  <document_year>  (601) 
2016

>  <target_pref_name>  (601) 
Carbonic anhydrase II

>  <assay_chembl_id>  (601) 
CHEMBL3789778

>  <standard_relation>  (601) 
=

>  <assay_description>  (601) 
Inhibition of human carbonic anhydrase 2 using 4-nitrophenylacetate as substrate by spectrophotometric analysis

>  <published_relation>  (601) 
=

>  <standard_value>  (601) 
15.35

>  <qudt_units>  (601) 
http://www.openphacts.org/units/Nanomolar

>  <target_tax_id>  (601) 
9606

>  <bao_label>  (601) 
None

>  <published_units>  (601) 
nM

>  <pchembl_value>  (601) 
7.81

>  <published_type>  (601) 
IC50

>  <activity_comment>  (601) 
None

$$$$

     RDKit          

 18 19  0  0  0  0  0  0  0  0999 V2000
    0.0000    0.0000    0.0000 C   0  0  0  0  0  0  0  0  0  0  0  0
    0.0000    0.0000    0.0000 N   0  0  0  0  0  0  0  0  0  0  0  0
    0.0000    0.0000    0.0000 C   0  0  0  0  0  0  0  0  0  0  0  0
    0.0000    0.0000    0.0000 S   0  0  0  0  0  0  0  0  0  0  0  0
    0.0000    0.0000    0.0000 O   0  0  0  0  0  0  0  0  0  0  0  0
    0.0000    0.0000    0.0000 O   0  0  0  0  0  0  0  0  0  0  0  0
    0.0000    0.0000    0.0000 N   0  0  0  0  0  0  0  0  0  0  0  0
    0.0000    0.0000    0.0000 C   0  0  0  0  0  0  0  0  0  0  0  0
    0.0000    0.0000    0.0000 C   0  0  0  0  0  0  0  0  0  0  0  0
    0.0000    0.0000    0.0000 C   0  0  0  0  0  0  0  0  0  0  0  0
    0.0000    0.0000    0.0000 C   0  0  0  0  0  0  0  0  0  0  0  0
    0.0000    0.0000    0.0000 C   0  0  0  0  0  0  0  0  0  0  0  0
    0.0000    0.0000    0.0000 C   0  0  0  0  0  0  0  0  0  0  0  0
    0.0000    0.0000    0.0000 O   0  0  0  0  0  0  0  0  0  0  0  0
    0.0000    0.0000    0.0000 C   0  0  0  0  0  0  0  0  0  0  0  0
    0.0000    0.0000    0.0000 C   0  0  0  0  0  0  0  0  0  0  0  0
    0.0000    0.0000    0.0000 C   0  0  0  0  0  0  0  0  0  0  0  0
    0.0000    0.0000    0.0000 C   0  0  0  0  0  0  0  0  0  0  0  0
  1  2  1  0
  2  3  1  0
  2  4  1  0
  4  5  2  0
  4  6  2  0
  4  7  1  0
  7  8  1  0
  8  9  1  0
  9 10  1  0
 10 11  1  0
 11 12  2  0
 12 13  1  0
 13 14  1  0
 13 15  2  0
 15 16  1  0
 16 17  2  0
 17 18  1  0
 18  8  1  0
 17 11  1  0
M  END
>  <pIC50>  (602) 
7.89

>  <ChEMBL_ID>  (602) 
CHEMBL3786442

>  <document_journal>  (602) 
Bioorg. Med. Chem.

>  <bao_endpoint>  (602) 
BAO_0000190

>  <potential_duplicate>  (602) 
None

>  <uo_units>  (602) 
UO_0000065

>  <canonical_smiles>  (602) 
CN(C)S(=O)(=O)N[C@H]1CCc2cc(O)ccc2C1

>  <parent_molecule_chembl_id>  (602) 
CHEMBL3786442

>  <assay_type>  (602) 
B

>  <src_id>  (602) 
1

>  <ligand_efficiency>  (602) 
None

>  <standard_flag>  (602) 
True

>  <molecule_chembl_id>  (602) 
CHEMBL3786442

>  <target_organism>  (602) 
Homo sapiens

>  <standard_units>  (602) 
nM

>  <record_id>  (602) 
2769545

>  <document_chembl_id>  (602) 
CHEMBL3784977

>  <bao_format>  (602) 
None

>  <data_validity_description>  (602) 
None

>  <activity_id>  (602) 
16543654

>  <standard_type>  (602) 
IC50

>  <target_chembl_id>  (602) 
CHEMBL205

>  <data_validity_comment>  (602) 
None

>  <published_value>  (602) 
12.97

>  <document_year>  (602) 
2016

>  <target_pref_name>  (602) 
Carbonic anhydrase II

>  <assay_chembl_id>  (602) 
CHEMBL3789778

>  <standard_relation>  (602) 
=

>  <assay_description>  (602) 
Inhibition of human carbonic anhydrase 2 using 4-nitrophenylacetate as substrate by spectrophotometric analysis

>  <published_relation>  (602) 
=

>  <standard_value>  (602) 
12.97

>  <qudt_units>  (602) 
http://www.openphacts.org/units/Nanomolar

>  <target_tax_id>  (602) 
9606

>  <bao_label>  (602) 
None

>  <published_units>  (602) 
nM

>  <pchembl_value>  (602) 
7.89

>  <published_type>  (602) 
IC50

>  <activity_comment>  (602) 
None

$$$$

     RDKit          

 18 19  0  0  0  0  0  0  0  0999 V2000
    0.0000    0.0000    0.0000 C   0  0  0  0  0  0  0  0  0  0  0  0
    0.0000    0.0000    0.0000 N   0  0  0  0  0  0  0  0  0  0  0  0
    0.0000    0.0000    0.0000 C   0  0  0  0  0  0  0  0  0  0  0  0
    0.0000    0.0000    0.0000 S   0  0  0  0  0  0  0  0  0  0  0  0
    0.0000    0.0000    0.0000 O   0  0  0  0  0  0  0  0  0  0  0  0
    0.0000    0.0000    0.0000 O   0  0  0  0  0  0  0  0  0  0  0  0
    0.0000    0.0000    0.0000 N   0  0  0  0  0  0  0  0  0  0  0  0
    0.0000    0.0000    0.0000 C   0  0  0  0  0  0  0  0  0  0  0  0
    0.0000    0.0000    0.0000 C   0  0  0  0  0  0  0  0  0  0  0  0
    0.0000    0.0000    0.0000 C   0  0  0  0  0  0  0  0  0  0  0  0
    0.0000    0.0000    0.0000 C   0  0  0  0  0  0  0  0  0  0  0  0
    0.0000    0.0000    0.0000 C   0  0  0  0  0  0  0  0  0  0  0  0
    0.0000    0.0000    0.0000 C   0  0  0  0  0  0  0  0  0  0  0  0
    0.0000    0.0000    0.0000 C   0  0  0  0  0  0  0  0  0  0  0  0
    0.0000    0.0000    0.0000 O   0  0  0  0  0  0  0  0  0  0  0  0
    0.0000    0.0000    0.0000 C   0  0  0  0  0  0  0  0  0  0  0  0
    0.0000    0.0000    0.0000 C   0  0  0  0  0  0  0  0  0  0  0  0
    0.0000    0.0000    0.0000 C   0  0  0  0  0  0  0  0  0  0  0  0
  1  2  1  0
  2  3  1  0
  2  4  1  0
  4  5  2  0
  4  6  2  0
  4  7  1  0
  7  8  1  0
  8  9  1  0
  9 10  1  0
 10 11  1  0
 11 12  2  0
 12 13  1  0
 13 14  2  0
 14 15  1  0
 14 16  1  0
 16 17  2  0
 17 18  1  0
 18  8  1  0
 17 11  1  0
M  END
>  <pIC50>  (603) 
7.97

>  <ChEMBL_ID>  (603) 
CHEMBL3786719

>  <document_journal>  (603) 
Bioorg. Med. Chem.

>  <bao_endpoint>  (603) 
BAO_0000190

>  <potential_duplicate>  (603) 
None

>  <uo_units>  (603) 
UO_0000065

>  <canonical_smiles>  (603) 
CN(C)S(=O)(=O)NC1CCc2ccc(O)cc2C1

>  <parent_molecule_chembl_id>  (603) 
CHEMBL3786719

>  <assay_type>  (603) 
B

>  <src_id>  (603) 
1

>  <ligand_efficiency>  (603) 
None

>  <standard_flag>  (603) 
True

>  <molecule_chembl_id>  (603) 
CHEMBL3786719

>  <target_organism>  (603) 
Homo sapiens

>  <standard_units>  (603) 
nM

>  <record_id>  (603) 
2769546

>  <document_chembl_id>  (603) 
CHEMBL3784977

>  <bao_format>  (603) 
None

>  <data_validity_description>  (603) 
None

>  <activity_id>  (603) 
16543655

>  <standard_type>  (603) 
IC50

>  <target_chembl_id>  (603) 
CHEMBL205

>  <data_validity_comment>  (603) 
None

>  <published_value>  (603) 
10.84

>  <document_year>  (603) 
2016

>  <target_pref_name>  (603) 
Carbonic anhydrase II

>  <assay_chembl_id>  (603) 
CHEMBL3789778

>  <standard_relation>  (603) 
=

>  <assay_description>  (603) 
Inhibition of human carbonic anhydrase 2 using 4-nitrophenylacetate as substrate by spectrophotometric analysis

>  <published_relation>  (603) 
=

>  <standard_value>  (603) 
10.84

>  <qudt_units>  (603) 
http://www.openphacts.org/units/Nanomolar

>  <target_tax_id>  (603) 
9606

>  <bao_label>  (603) 
None

>  <published_units>  (603) 
nM

>  <pchembl_value>  (603) 
7.97

>  <published_type>  (603) 
IC50

>  <activity_comment>  (603) 
None

$$$$
