
     RDKit          

 26 30  0  0  0  0  0  0  0  0999 V2000
    0.0000    0.0000    0.0000 C   0  0  0  0  0  0  0  0  0  0  0  0
    0.0000    0.0000    0.0000 N   0  0  0  0  0  0  0  0  0  0  0  0
    0.0000    0.0000    0.0000 C   0  0  0  0  0  0  0  0  0  0  0  0
    0.0000    0.0000    0.0000 C   0  0  0  0  0  0  0  0  0  0  0  0
    0.0000    0.0000    0.0000 N   0  0  0  0  0  0  0  0  0  0  0  0
    0.0000    0.0000    0.0000 C   0  0  0  0  0  0  0  0  0  0  0  0
    0.0000    0.0000    0.0000 C   0  0  0  0  0  0  0  0  0  0  0  0
    0.0000    0.0000    0.0000 C   0  0  0  0  0  0  0  0  0  0  0  0
    0.0000    0.0000    0.0000 N   0  0  0  0  0  0  0  0  0  0  0  0
    0.0000    0.0000    0.0000 C   0  0  0  0  0  0  0  0  0  0  0  0
    0.0000    0.0000    0.0000 C   0  0  0  0  0  0  0  0  0  0  0  0
    0.0000    0.0000    0.0000 C   0  0  0  0  0  0  0  0  0  0  0  0
    0.0000    0.0000    0.0000 N   0  0  0  0  0  0  0  0  0  0  0  0
    0.0000    0.0000    0.0000 C   0  0  0  0  0  0  0  0  0  0  0  0
    0.0000    0.0000    0.0000 C   0  0  0  0  0  0  0  0  0  0  0  0
    0.0000    0.0000    0.0000 C   0  0  0  0  0  0  0  0  0  0  0  0
    0.0000    0.0000    0.0000 C   0  0  0  0  0  0  0  0  0  0  0  0
    0.0000    0.0000    0.0000 C   0  0  0  0  0  0  0  0  0  0  0  0
    0.0000    0.0000    0.0000 C   0  0  0  0  0  0  0  0  0  0  0  0
    0.0000    0.0000    0.0000 C   0  0  0  0  0  0  0  0  0  0  0  0
    0.0000    0.0000    0.0000 C   0  0  0  0  0  0  0  0  0  0  0  0
    0.0000    0.0000    0.0000 C   0  0  0  0  0  0  0  0  0  0  0  0
    0.0000    0.0000    0.0000 C   0  0  0  0  0  0  0  0  0  0  0  0
    0.0000    0.0000    0.0000 C   0  0  0  0  0  0  0  0  0  0  0  0
    0.0000    0.0000    0.0000 C   0  0  0  0  0  0  0  0  0  0  0  0
    0.0000    0.0000    0.0000 C   0  0  0  0  0  0  0  0  0  0  0  0
  1  2  1  0
  2  3  1  0
  3  4  1  0
  4  5  1  0
  5  6  1  0
  6  7  1  0
  5  8  1  0
  8  9  2  0
  9 10  1  0
 10 11  2  0
 11 12  1  0
 12 13  2  0
  1 14  1  0
 14 15  2  0
 15 16  1  0
 16 17  2  0
 17 18  1  0
 18 19  2  0
 19 20  1  0
 20 21  1  0
 21 22  2  0
 22 23  1  0
 23 24  2  0
 24 25  1  0
 25 26  2  0
  7  2  1  0
 13  8  1  0
 19 14  1  0
 26 18  1  0
 26 21  1  0
M  END
>  <pIC50>  (1) 
5.01

>  <ChEMBL_ID>  (1) 
CHEMBL303519

>  <document_journal>  (1) 
Bioorg. Med. Chem. Lett.

>  <bao_endpoint>  (1) 
BAO_0000190

>  <potential_duplicate>  (1) 
False

>  <uo_units>  (1) 
UO_0000065

>  <canonical_smiles>  (1) 
C(N1CCN(CC1)c2ncccn2)c3cccc4c3Cc5ccccc45

>  <parent_molecule_chembl_id>  (1) 
CHEMBL303519

>  <assay_type>  (1) 
B

>  <src_id>  (1) 
1

>  <ligand_efficiency>  (1) 
{u'le': u'0.26', u'bei': u'14.63', u'sei': u'15.53', u'lle': u'1.07'}

>  <standard_flag>  (1) 
True

>  <molecule_chembl_id>  (1) 
CHEMBL303519

>  <target_organism>  (1) 
Homo sapiens

>  <standard_units>  (1) 
nM

>  <record_id>  (1) 
108659

>  <document_chembl_id>  (1) 
CHEMBL1130912

>  <bao_format>  (1) 
BAO_0000219

>  <data_validity_description>  (1) 
None

>  <activity_id>  (1) 
32111

>  <standard_type>  (1) 
IC50

>  <target_chembl_id>  (1) 
CHEMBL217

>  <data_validity_comment>  (1) 
None

>  <published_value>  (1) 
9800

>  <document_year>  (1) 
1998

>  <target_pref_name>  (1) 
Dopamine D2 receptor

>  <assay_chembl_id>  (1) 
CHEMBL671073

>  <standard_relation>  (1) 
=

>  <assay_description>  (1) 
Binding affinity to cloned human Dopamine receptor D2 expressed in A9L cells by [3H]spiperone displacement.

>  <published_relation>  (1) 
=

>  <standard_value>  (1) 
9800

>  <qudt_units>  (1) 
http://www.openphacts.org/units/Nanomolar

>  <target_tax_id>  (1) 
9606

>  <bao_label>  (1) 
cell-based format

>  <published_units>  (1) 
nM

>  <pchembl_value>  (1) 
5.01

>  <published_type>  (1) 
IC50

>  <activity_comment>  (1) 
None

$$$$

     RDKit          

 27 30  0  0  0  0  0  0  0  0999 V2000
    0.0000    0.0000    0.0000 C   0  0  0  0  0  0  0  0  0  0  0  0
    0.0000    0.0000    0.0000 O   0  0  0  0  0  0  0  0  0  0  0  0
    0.0000    0.0000    0.0000 C   0  0  0  0  0  0  0  0  0  0  0  0
    0.0000    0.0000    0.0000 C   0  0  0  0  0  0  0  0  0  0  0  0
    0.0000    0.0000    0.0000 C   0  0  0  0  0  0  0  0  0  0  0  0
    0.0000    0.0000    0.0000 C   0  0  0  0  0  0  0  0  0  0  0  0
    0.0000    0.0000    0.0000 C   0  0  0  0  0  0  0  0  0  0  0  0
    0.0000    0.0000    0.0000 C   0  0  0  0  0  0  0  0  0  0  0  0
    0.0000    0.0000    0.0000 C   0  0  0  0  0  0  0  0  0  0  0  0
    0.0000    0.0000    0.0000 C   0  0  0  0  0  0  0  0  0  0  0  0
    0.0000    0.0000    0.0000 C   0  0  0  0  0  0  0  0  0  0  0  0
    0.0000    0.0000    0.0000 C   0  0  0  0  0  0  0  0  0  0  0  0
    0.0000    0.0000    0.0000 C   0  0  0  0  0  0  0  0  0  0  0  0
    0.0000    0.0000    0.0000 C   0  0  0  0  0  0  0  0  0  0  0  0
    0.0000    0.0000    0.0000 N   0  0  0  0  0  0  0  0  0  0  0  0
    0.0000    0.0000    0.0000 C   0  0  0  0  0  0  0  0  0  0  0  0
    0.0000    0.0000    0.0000 C   0  0  0  0  0  0  0  0  0  0  0  0
    0.0000    0.0000    0.0000 N   0  0  0  0  0  0  0  0  0  0  0  0
    0.0000    0.0000    0.0000 C   0  0  0  0  0  0  0  0  0  0  0  0
    0.0000    0.0000    0.0000 C   0  0  0  0  0  0  0  0  0  0  0  0
    0.0000    0.0000    0.0000 C   0  0  0  0  0  0  0  0  0  0  0  0
    0.0000    0.0000    0.0000 N   0  0  0  0  0  0  0  0  0  0  0  0
    0.0000    0.0000    0.0000 C   0  0  0  0  0  0  0  0  0  0  0  0
    0.0000    0.0000    0.0000 C   0  0  0  0  0  0  0  0  0  0  0  0
    0.0000    0.0000    0.0000 C   0  0  0  0  0  0  0  0  0  0  0  0
    0.0000    0.0000    0.0000 N   0  0  0  0  0  0  0  0  0  0  0  0
    0.0000    0.0000    0.0000 C   0  0  0  0  0  0  0  0  0  0  0  0
  1  2  1  0
  2  3  1  0
  3  4  2  0
  4  5  1  0
  5  6  2  0
  6  7  1  0
  7  8  2  0
  6  9  1  0
  9 10  2  0
 10 11  1  0
 11 12  2  0
 12 13  1  0
 13 14  1  0
 14 15  1  0
 15 16  1  0
 16 17  1  0
 17 18  1  0
 18 19  1  0
 19 20  1  0
 18 21  1  0
 21 22  2  0
 22 23  1  0
 23 24  2  0
 24 25  1  0
 25 26  2  0
 13 27  2  0
  8  3  1  0
 27  9  1  0
 20 15  1  0
 26 21  1  0
M  END
>  <pIC50>  (2) 
7.3

>  <ChEMBL_ID>  (2) 
CHEMBL292943

>  <document_journal>  (2) 
Bioorg. Med. Chem. Lett.

>  <bao_endpoint>  (2) 
BAO_0000190

>  <potential_duplicate>  (2) 
False

>  <uo_units>  (2) 
UO_0000065

>  <canonical_smiles>  (2) 
COc1ccc(cc1)c2cccc(CN3CCN(CC3)c4ncccn4)c2

>  <parent_molecule_chembl_id>  (2) 
CHEMBL292943

>  <assay_type>  (2) 
B

>  <src_id>  (2) 
1

>  <ligand_efficiency>  (2) 
{u'le': u'0.37', u'bei': u'20.26', u'sei': u'17.6', u'lle': u'3.52'}

>  <standard_flag>  (2) 
True

>  <molecule_chembl_id>  (2) 
CHEMBL292943

>  <target_organism>  (2) 
Homo sapiens

>  <standard_units>  (2) 
nM

>  <record_id>  (2) 
108665

>  <document_chembl_id>  (2) 
CHEMBL1130912

>  <bao_format>  (2) 
BAO_0000219

>  <data_validity_description>  (2) 
None

>  <activity_id>  (2) 
33282

>  <standard_type>  (2) 
IC50

>  <target_chembl_id>  (2) 
CHEMBL217

>  <data_validity_comment>  (2) 
None

>  <published_value>  (2) 
50

>  <document_year>  (2) 
1998

>  <target_pref_name>  (2) 
Dopamine D2 receptor

>  <assay_chembl_id>  (2) 
CHEMBL671073

>  <standard_relation>  (2) 
=

>  <assay_description>  (2) 
Binding affinity to cloned human Dopamine receptor D2 expressed in A9L cells by [3H]spiperone displacement.

>  <published_relation>  (2) 
=

>  <standard_value>  (2) 
50

>  <qudt_units>  (2) 
http://www.openphacts.org/units/Nanomolar

>  <target_tax_id>  (2) 
9606

>  <bao_label>  (2) 
cell-based format

>  <published_units>  (2) 
nM

>  <pchembl_value>  (2) 
7.3

>  <published_type>  (2) 
IC50

>  <activity_comment>  (2) 
None

$$$$

     RDKit          

 27 30  0  0  0  0  0  0  0  0999 V2000
    0.0000    0.0000    0.0000 F   0  0  0  0  0  0  0  0  0  0  0  0
    0.0000    0.0000    0.0000 C   0  0  0  0  0  0  0  0  0  0  0  0
    0.0000    0.0000    0.0000 C   0  0  0  0  0  0  0  0  0  0  0  0
    0.0000    0.0000    0.0000 C   0  0  0  0  0  0  0  0  0  0  0  0
    0.0000    0.0000    0.0000 C   0  0  0  0  0  0  0  0  0  0  0  0
    0.0000    0.0000    0.0000 C   0  0  0  0  0  0  0  0  0  0  0  0
    0.0000    0.0000    0.0000 C   0  0  0  0  0  0  0  0  0  0  0  0
    0.0000    0.0000    0.0000 C   0  0  0  0  0  0  0  0  0  0  0  0
    0.0000    0.0000    0.0000 C   0  0  0  0  0  0  0  0  0  0  0  0
    0.0000    0.0000    0.0000 N   0  0  0  0  0  0  0  0  0  0  0  0
    0.0000    0.0000    0.0000 C   0  0  0  0  0  0  0  0  0  0  0  0
    0.0000    0.0000    0.0000 C   0  0  0  0  0  0  0  0  0  0  0  0
    0.0000    0.0000    0.0000 C   0  0  0  0  0  0  0  0  0  0  0  0
    0.0000    0.0000    0.0000 N   0  0  0  0  0  0  0  0  0  0  0  0
    0.0000    0.0000    0.0000 C   0  0  0  0  0  0  0  0  0  0  0  0
    0.0000    0.0000    0.0000 C   0  0  0  0  0  0  0  0  0  0  0  0
    0.0000    0.0000    0.0000 N   0  0  0  0  0  0  0  0  0  0  0  0
    0.0000    0.0000    0.0000 C   0  0  0  0  0  0  0  0  0  0  0  0
    0.0000    0.0000    0.0000 C   0  0  0  0  0  0  0  0  0  0  0  0
    0.0000    0.0000    0.0000 C   0  0  0  0  0  0  0  0  0  0  0  0
    0.0000    0.0000    0.0000 C   0  0  0  0  0  0  0  0  0  0  0  0
    0.0000    0.0000    0.0000 C   0  0  0  0  0  0  0  0  0  0  0  0
    0.0000    0.0000    0.0000 C   0  0  0  0  0  0  0  0  0  0  0  0
    0.0000    0.0000    0.0000 C   0  0  0  0  0  0  0  0  0  0  0  0
    0.0000    0.0000    0.0000 C   0  0  0  0  0  0  0  0  0  0  0  0
    0.0000    0.0000    0.0000 F   0  0  0  0  0  0  0  0  0  0  0  0
    0.0000    0.0000    0.0000 C   0  0  0  0  0  0  0  0  0  0  0  0
  1  2  1  0
  2  3  2  0
  3  4  1  0
  4  5  2  0
  5  6  1  0
  6  7  2  0
  5  8  1  0
  8  9  2  0
  9 10  1  0
 10 11  2  0
 11 12  1  0
 12 13  1  0
 13 14  1  0
 14 15  1  0
 15 16  1  0
 16 17  1  0
 17 18  1  0
 18 19  1  0
 17 20  1  0
 20 21  2  0
 21 22  1  0
 22 23  2  0
 23 24  1  0
 24 25  2  0
 25 26  1  0
 12 27  2  0
  7  2  1  0
 27  8  1  0
 19 14  1  0
 25 20  1  0
M  END
>  <pIC50>  (3) 
7.6

>  <ChEMBL_ID>  (3) 
CHEMBL61682

>  <document_journal>  (3) 
Bioorg. Med. Chem. Lett.

>  <bao_endpoint>  (3) 
BAO_0000190

>  <potential_duplicate>  (3) 
False

>  <uo_units>  (3) 
UO_0000065

>  <canonical_smiles>  (3) 
Fc1ccc(cc1)c2cncc(CN3CCN(CC3)c4ccccc4F)c2

>  <parent_molecule_chembl_id>  (3) 
CHEMBL61682

>  <assay_type>  (3) 
B

>  <src_id>  (3) 
1

>  <ligand_efficiency>  (3) 
{u'le': u'0.38', u'bei': u'20.8', u'sei': u'39.25', u'lle': u'3.29'}

>  <standard_flag>  (3) 
True

>  <molecule_chembl_id>  (3) 
CHEMBL61682

>  <target_organism>  (3) 
Homo sapiens

>  <standard_units>  (3) 
nM

>  <record_id>  (3) 
108652

>  <document_chembl_id>  (3) 
CHEMBL1130912

>  <bao_format>  (3) 
BAO_0000219

>  <data_validity_description>  (3) 
None

>  <activity_id>  (3) 
38258

>  <standard_type>  (3) 
IC50

>  <target_chembl_id>  (3) 
CHEMBL217

>  <data_validity_comment>  (3) 
None

>  <published_value>  (3) 
25

>  <document_year>  (3) 
1998

>  <target_pref_name>  (3) 
Dopamine D2 receptor

>  <assay_chembl_id>  (3) 
CHEMBL671073

>  <standard_relation>  (3) 
=

>  <assay_description>  (3) 
Binding affinity to cloned human Dopamine receptor D2 expressed in A9L cells by [3H]spiperone displacement.

>  <published_relation>  (3) 
=

>  <standard_value>  (3) 
25

>  <qudt_units>  (3) 
http://www.openphacts.org/units/Nanomolar

>  <target_tax_id>  (3) 
9606

>  <bao_label>  (3) 
cell-based format

>  <published_units>  (3) 
nM

>  <pchembl_value>  (3) 
7.6

>  <published_type>  (3) 
IC50

>  <activity_comment>  (3) 
None

$$$$

     RDKit          

 27 30  0  0  0  0  0  0  0  0999 V2000
    0.0000    0.0000    0.0000 C   0  0  0  0  0  0  0  0  0  0  0  0
    0.0000    0.0000    0.0000 O   0  0  0  0  0  0  0  0  0  0  0  0
    0.0000    0.0000    0.0000 C   0  0  0  0  0  0  0  0  0  0  0  0
    0.0000    0.0000    0.0000 C   0  0  0  0  0  0  0  0  0  0  0  0
    0.0000    0.0000    0.0000 C   0  0  0  0  0  0  0  0  0  0  0  0
    0.0000    0.0000    0.0000 C   0  0  0  0  0  0  0  0  0  0  0  0
    0.0000    0.0000    0.0000 C   0  0  0  0  0  0  0  0  0  0  0  0
    0.0000    0.0000    0.0000 C   0  0  0  0  0  0  0  0  0  0  0  0
    0.0000    0.0000    0.0000 C   0  0  0  0  0  0  0  0  0  0  0  0
    0.0000    0.0000    0.0000 C   0  0  0  0  0  0  0  0  0  0  0  0
    0.0000    0.0000    0.0000 C   0  0  0  0  0  0  0  0  0  0  0  0
    0.0000    0.0000    0.0000 C   0  0  0  0  0  0  0  0  0  0  0  0
    0.0000    0.0000    0.0000 C   0  0  0  0  0  0  0  0  0  0  0  0
    0.0000    0.0000    0.0000 C   0  0  0  0  0  0  0  0  0  0  0  0
    0.0000    0.0000    0.0000 N   0  0  0  0  0  0  0  0  0  0  0  0
    0.0000    0.0000    0.0000 C   0  0  0  0  0  0  0  0  0  0  0  0
    0.0000    0.0000    0.0000 C   0  0  0  0  0  0  0  0  0  0  0  0
    0.0000    0.0000    0.0000 N   0  0  0  0  0  0  0  0  0  0  0  0
    0.0000    0.0000    0.0000 C   0  0  0  0  0  0  0  0  0  0  0  0
    0.0000    0.0000    0.0000 C   0  0  0  0  0  0  0  0  0  0  0  0
    0.0000    0.0000    0.0000 C   0  0  0  0  0  0  0  0  0  0  0  0
    0.0000    0.0000    0.0000 N   0  0  0  0  0  0  0  0  0  0  0  0
    0.0000    0.0000    0.0000 C   0  0  0  0  0  0  0  0  0  0  0  0
    0.0000    0.0000    0.0000 C   0  0  0  0  0  0  0  0  0  0  0  0
    0.0000    0.0000    0.0000 C   0  0  0  0  0  0  0  0  0  0  0  0
    0.0000    0.0000    0.0000 N   0  0  0  0  0  0  0  0  0  0  0  0
    0.0000    0.0000    0.0000 C   0  0  0  0  0  0  0  0  0  0  0  0
  1  2  1  0
  2  3  1  0
  3  4  2  0
  4  5  1  0
  5  6  2  0
  6  7  1  0
  7  8  2  0
  8  9  1  0
  9 10  2  0
 10 11  1  0
 11 12  2  0
 12 13  1  0
 13 14  1  0
 14 15  1  0
 15 16  1  0
 16 17  1  0
 17 18  1  0
 18 19  1  0
 19 20  1  0
 18 21  1  0
 21 22  2  0
 22 23  1  0
 23 24  2  0
 24 25  1  0
 25 26  2  0
 13 27  2  0
  8  3  1  0
 27  9  1  0
 20 15  1  0
 26 21  1  0
M  END
>  <pIC50>  (4) 
6.44

>  <ChEMBL_ID>  (4) 
CHEMBL64487

>  <document_journal>  (4) 
Bioorg. Med. Chem. Lett.

>  <bao_endpoint>  (4) 
BAO_0000190

>  <potential_duplicate>  (4) 
False

>  <uo_units>  (4) 
UO_0000065

>  <canonical_smiles>  (4) 
COc1ccccc1c2cccc(CN3CCN(CC3)c4ncccn4)c2

>  <parent_molecule_chembl_id>  (4) 
CHEMBL64487

>  <assay_type>  (4) 
B

>  <src_id>  (4) 
1

>  <ligand_efficiency>  (4) 
{u'le': u'0.33', u'bei': u'17.88', u'sei': u'15.53', u'lle': u'2.66'}

>  <standard_flag>  (4) 
True

>  <molecule_chembl_id>  (4) 
CHEMBL64487

>  <target_organism>  (4) 
Homo sapiens

>  <standard_units>  (4) 
nM

>  <record_id>  (4) 
108663

>  <document_chembl_id>  (4) 
CHEMBL1130912

>  <bao_format>  (4) 
BAO_0000219

>  <data_validity_description>  (4) 
None

>  <activity_id>  (4) 
39387

>  <standard_type>  (4) 
IC50

>  <target_chembl_id>  (4) 
CHEMBL217

>  <data_validity_comment>  (4) 
None

>  <published_value>  (4) 
360

>  <document_year>  (4) 
1998

>  <target_pref_name>  (4) 
Dopamine D2 receptor

>  <assay_chembl_id>  (4) 
CHEMBL671073

>  <standard_relation>  (4) 
=

>  <assay_description>  (4) 
Binding affinity to cloned human Dopamine receptor D2 expressed in A9L cells by [3H]spiperone displacement.

>  <published_relation>  (4) 
=

>  <standard_value>  (4) 
360

>  <qudt_units>  (4) 
http://www.openphacts.org/units/Nanomolar

>  <target_tax_id>  (4) 
9606

>  <bao_label>  (4) 
cell-based format

>  <published_units>  (4) 
nM

>  <pchembl_value>  (4) 
6.44

>  <published_type>  (4) 
IC50

>  <activity_comment>  (4) 
None

$$$$

     RDKit          

 24 27  0  0  0  0  0  0  0  0999 V2000
    0.0000    0.0000    0.0000 C   0  0  0  0  0  0  0  0  0  0  0  0
    0.0000    0.0000    0.0000 N   0  0  0  0  0  0  0  0  0  0  0  0
    0.0000    0.0000    0.0000 C   0  0  0  0  0  0  0  0  0  0  0  0
    0.0000    0.0000    0.0000 C   0  0  0  0  0  0  0  0  0  0  0  0
    0.0000    0.0000    0.0000 N   0  0  0  0  0  0  0  0  0  0  0  0
    0.0000    0.0000    0.0000 C   0  0  0  0  0  0  0  0  0  0  0  0
    0.0000    0.0000    0.0000 C   0  0  0  0  0  0  0  0  0  0  0  0
    0.0000    0.0000    0.0000 C   0  0  0  0  0  0  0  0  0  0  0  0
    0.0000    0.0000    0.0000 N   0  0  0  0  0  0  0  0  0  0  0  0
    0.0000    0.0000    0.0000 C   0  0  0  0  0  0  0  0  0  0  0  0
    0.0000    0.0000    0.0000 C   0  0  0  0  0  0  0  0  0  0  0  0
    0.0000    0.0000    0.0000 C   0  0  0  0  0  0  0  0  0  0  0  0
    0.0000    0.0000    0.0000 N   0  0  0  0  0  0  0  0  0  0  0  0
    0.0000    0.0000    0.0000 C   0  0  0  0  0  0  0  0  0  0  0  0
    0.0000    0.0000    0.0000 C   0  0  0  0  0  0  0  0  0  0  0  0
    0.0000    0.0000    0.0000 C   0  0  0  0  0  0  0  0  0  0  0  0
    0.0000    0.0000    0.0000 C   0  0  0  0  0  0  0  0  0  0  0  0
    0.0000    0.0000    0.0000 C   0  0  0  0  0  0  0  0  0  0  0  0
    0.0000    0.0000    0.0000 C   0  0  0  0  0  0  0  0  0  0  0  0
    0.0000    0.0000    0.0000 C   0  0  0  0  0  0  0  0  0  0  0  0
    0.0000    0.0000    0.0000 C   0  0  0  0  0  0  0  0  0  0  0  0
    0.0000    0.0000    0.0000 C   0  0  0  0  0  0  0  0  0  0  0  0
    0.0000    0.0000    0.0000 S   0  0  0  0  0  0  0  0  0  0  0  0
    0.0000    0.0000    0.0000 C   0  0  0  0  0  0  0  0  0  0  0  0
  1  2  1  0
  2  3  1  0
  3  4  1  0
  4  5  1  0
  5  6  1  0
  6  7  1  0
  5  8  1  0
  8  9  2  0
  9 10  1  0
 10 11  2  0
 11 12  1  0
 12 13  2  0
  1 14  1  0
 14 15  2  0
 15 16  1  0
 16 17  2  0
 17 18  1  0
 18 19  2  0
 18 20  1  0
 20 21  1  0
 21 22  2  0
 22 23  1  0
 23 24  1  0
  7  2  1  0
 13  8  1  0
 19 14  1  0
 24 20  2  0
M  END
>  <pIC50>  (5) 
6.52

>  <ChEMBL_ID>  (5) 
CHEMBL64597

>  <document_journal>  (5) 
Bioorg. Med. Chem. Lett.

>  <bao_endpoint>  (5) 
BAO_0000190

>  <potential_duplicate>  (5) 
False

>  <uo_units>  (5) 
UO_0000065

>  <canonical_smiles>  (5) 
C(N1CCN(CC1)c2ncccn2)c3cccc(c3)c4ccsc4

>  <parent_molecule_chembl_id>  (5) 
CHEMBL64597

>  <assay_type>  (5) 
B

>  <src_id>  (5) 
1

>  <ligand_efficiency>  (5) 
{u'le': u'0.37', u'bei': u'19.39', u'sei': u'10.78', u'lle': u'3.06'}

>  <standard_flag>  (5) 
True

>  <molecule_chembl_id>  (5) 
CHEMBL64597

>  <target_organism>  (5) 
Homo sapiens

>  <standard_units>  (5) 
nM

>  <record_id>  (5) 
108662

>  <document_chembl_id>  (5) 
CHEMBL1130912

>  <bao_format>  (5) 
BAO_0000219

>  <data_validity_description>  (5) 
None

>  <activity_id>  (5) 
39391

>  <standard_type>  (5) 
IC50

>  <target_chembl_id>  (5) 
CHEMBL217

>  <data_validity_comment>  (5) 
None

>  <published_value>  (5) 
300

>  <document_year>  (5) 
1998

>  <target_pref_name>  (5) 
Dopamine D2 receptor

>  <assay_chembl_id>  (5) 
CHEMBL671073

>  <standard_relation>  (5) 
=

>  <assay_description>  (5) 
Binding affinity to cloned human Dopamine receptor D2 expressed in A9L cells by [3H]spiperone displacement.

>  <published_relation>  (5) 
=

>  <standard_value>  (5) 
300

>  <qudt_units>  (5) 
http://www.openphacts.org/units/Nanomolar

>  <target_tax_id>  (5) 
9606

>  <bao_label>  (5) 
cell-based format

>  <published_units>  (5) 
nM

>  <pchembl_value>  (5) 
6.52

>  <published_type>  (5) 
IC50

>  <activity_comment>  (5) 
None

$$$$

     RDKit          

 27 30  0  0  0  0  0  0  0  0999 V2000
    0.0000    0.0000    0.0000 F   0  0  0  0  0  0  0  0  0  0  0  0
    0.0000    0.0000    0.0000 C   0  0  0  0  0  0  0  0  0  0  0  0
    0.0000    0.0000    0.0000 C   0  0  0  0  0  0  0  0  0  0  0  0
    0.0000    0.0000    0.0000 C   0  0  0  0  0  0  0  0  0  0  0  0
    0.0000    0.0000    0.0000 C   0  0  0  0  0  0  0  0  0  0  0  0
    0.0000    0.0000    0.0000 C   0  0  0  0  0  0  0  0  0  0  0  0
    0.0000    0.0000    0.0000 C   0  0  0  0  0  0  0  0  0  0  0  0
    0.0000    0.0000    0.0000 N   0  0  0  0  0  0  0  0  0  0  0  0
    0.0000    0.0000    0.0000 C   0  0  0  0  0  0  0  0  0  0  0  0
    0.0000    0.0000    0.0000 C   0  0  0  0  0  0  0  0  0  0  0  0
    0.0000    0.0000    0.0000 N   0  0  0  0  0  0  0  0  0  0  0  0
    0.0000    0.0000    0.0000 C   0  0  0  0  0  0  0  0  0  0  0  0
    0.0000    0.0000    0.0000 C   0  0  0  0  0  0  0  0  0  0  0  0
    0.0000    0.0000    0.0000 C   0  0  0  0  0  0  0  0  0  0  0  0
    0.0000    0.0000    0.0000 N   0  0  0  0  0  0  0  0  0  0  0  0
    0.0000    0.0000    0.0000 C   0  0  0  0  0  0  0  0  0  0  0  0
    0.0000    0.0000    0.0000 C   0  0  0  0  0  0  0  0  0  0  0  0
    0.0000    0.0000    0.0000 C   0  0  0  0  0  0  0  0  0  0  0  0
    0.0000    0.0000    0.0000 C   0  0  0  0  0  0  0  0  0  0  0  0
    0.0000    0.0000    0.0000 C   0  0  0  0  0  0  0  0  0  0  0  0
    0.0000    0.0000    0.0000 C   0  0  0  0  0  0  0  0  0  0  0  0
    0.0000    0.0000    0.0000 C   0  0  0  0  0  0  0  0  0  0  0  0
    0.0000    0.0000    0.0000 F   0  0  0  0  0  0  0  0  0  0  0  0
    0.0000    0.0000    0.0000 C   0  0  0  0  0  0  0  0  0  0  0  0
    0.0000    0.0000    0.0000 C   0  0  0  0  0  0  0  0  0  0  0  0
    0.0000    0.0000    0.0000 C   0  0  0  0  0  0  0  0  0  0  0  0
    0.0000    0.0000    0.0000 C   0  0  0  0  0  0  0  0  0  0  0  0
  1  2  1  0
  2  3  2  0
  3  4  1  0
  4  5  2  0
  5  6  1  0
  6  7  2  0
  5  8  1  0
  8  9  1  0
  9 10  1  0
 10 11  1  0
 11 12  1  0
 12 13  1  0
 13 14  2  0
 14 15  1  0
 15 16  2  0
 16 17  1  0
 17 18  2  0
 17 19  1  0
 19 20  2  0
 20 21  1  0
 21 22  2  0
 22 23  1  0
 22 24  1  0
 24 25  2  0
 11 26  1  0
 26 27  1  0
  7  2  1  0
 27  8  1  0
 18 13  1  0
 25 19  1  0
M  END
>  <pIC50>  (6) 
7.16

>  <ChEMBL_ID>  (6) 
CHEMBL291824

>  <document_journal>  (6) 
Bioorg. Med. Chem. Lett.

>  <bao_endpoint>  (6) 
BAO_0000190

>  <potential_duplicate>  (6) 
False

>  <uo_units>  (6) 
UO_0000065

>  <canonical_smiles>  (6) 
Fc1ccc(cc1)N2CCN(Cc3cncc(c3)c4ccc(F)cc4)CC2

>  <parent_molecule_chembl_id>  (6) 
CHEMBL291824

>  <assay_type>  (6) 
B

>  <src_id>  (6) 
1

>  <ligand_efficiency>  (6) 
{u'le': u'0.36', u'bei': u'19.58', u'sei': u'36.94', u'lle': u'2.84'}

>  <standard_flag>  (6) 
True

>  <molecule_chembl_id>  (6) 
CHEMBL291824

>  <target_organism>  (6) 
Homo sapiens

>  <standard_units>  (6) 
nM

>  <record_id>  (6) 
108653

>  <document_chembl_id>  (6) 
CHEMBL1130912

>  <bao_format>  (6) 
BAO_0000219

>  <data_validity_description>  (6) 
None

>  <activity_id>  (6) 
40505

>  <standard_type>  (6) 
IC50

>  <target_chembl_id>  (6) 
CHEMBL217

>  <data_validity_comment>  (6) 
None

>  <published_value>  (6) 
70

>  <document_year>  (6) 
1998

>  <target_pref_name>  (6) 
Dopamine D2 receptor

>  <assay_chembl_id>  (6) 
CHEMBL671073

>  <standard_relation>  (6) 
=

>  <assay_description>  (6) 
Binding affinity to cloned human Dopamine receptor D2 expressed in A9L cells by [3H]spiperone displacement.

>  <published_relation>  (6) 
=

>  <standard_value>  (6) 
70

>  <qudt_units>  (6) 
http://www.openphacts.org/units/Nanomolar

>  <target_tax_id>  (6) 
9606

>  <bao_label>  (6) 
cell-based format

>  <published_units>  (6) 
nM

>  <pchembl_value>  (6) 
7.16

>  <published_type>  (6) 
IC50

>  <activity_comment>  (6) 
None

$$$$

     RDKit          

 26 29  0  0  0  0  0  0  0  0999 V2000
    0.0000    0.0000    0.0000 F   0  0  0  0  0  0  0  0  0  0  0  0
    0.0000    0.0000    0.0000 C   0  0  0  0  0  0  0  0  0  0  0  0
    0.0000    0.0000    0.0000 C   0  0  0  0  0  0  0  0  0  0  0  0
    0.0000    0.0000    0.0000 C   0  0  0  0  0  0  0  0  0  0  0  0
    0.0000    0.0000    0.0000 C   0  0  0  0  0  0  0  0  0  0  0  0
    0.0000    0.0000    0.0000 C   0  0  0  0  0  0  0  0  0  0  0  0
    0.0000    0.0000    0.0000 C   0  0  0  0  0  0  0  0  0  0  0  0
    0.0000    0.0000    0.0000 C   0  0  0  0  0  0  0  0  0  0  0  0
    0.0000    0.0000    0.0000 C   0  0  0  0  0  0  0  0  0  0  0  0
    0.0000    0.0000    0.0000 C   0  0  0  0  0  0  0  0  0  0  0  0
    0.0000    0.0000    0.0000 C   0  0  0  0  0  0  0  0  0  0  0  0
    0.0000    0.0000    0.0000 C   0  0  0  0  0  0  0  0  0  0  0  0
    0.0000    0.0000    0.0000 C   0  0  0  0  0  0  0  0  0  0  0  0
    0.0000    0.0000    0.0000 N   0  0  0  0  0  0  0  0  0  0  0  0
    0.0000    0.0000    0.0000 C   0  0  0  0  0  0  0  0  0  0  0  0
    0.0000    0.0000    0.0000 C   0  0  0  0  0  0  0  0  0  0  0  0
    0.0000    0.0000    0.0000 N   0  0  0  0  0  0  0  0  0  0  0  0
    0.0000    0.0000    0.0000 C   0  0  0  0  0  0  0  0  0  0  0  0
    0.0000    0.0000    0.0000 C   0  0  0  0  0  0  0  0  0  0  0  0
    0.0000    0.0000    0.0000 C   0  0  0  0  0  0  0  0  0  0  0  0
    0.0000    0.0000    0.0000 N   0  0  0  0  0  0  0  0  0  0  0  0
    0.0000    0.0000    0.0000 C   0  0  0  0  0  0  0  0  0  0  0  0
    0.0000    0.0000    0.0000 C   0  0  0  0  0  0  0  0  0  0  0  0
    0.0000    0.0000    0.0000 C   0  0  0  0  0  0  0  0  0  0  0  0
    0.0000    0.0000    0.0000 N   0  0  0  0  0  0  0  0  0  0  0  0
    0.0000    0.0000    0.0000 C   0  0  0  0  0  0  0  0  0  0  0  0
  1  2  1  0
  2  3  2  0
  3  4  1  0
  4  5  2  0
  5  6  1  0
  6  7  2  0
  5  8  1  0
  8  9  2  0
  9 10  1  0
 10 11  2  0
 11 12  1  0
 12 13  1  0
 13 14  1  0
 14 15  1  0
 15 16  1  0
 16 17  1  0
 17 18  1  0
 18 19  1  0
 17 20  1  0
 20 21  2  0
 21 22  1  0
 22 23  2  0
 23 24  1  0
 24 25  2  0
 12 26  2  0
  7  2  1  0
 26  8  1  0
 19 14  1  0
 25 20  1  0
M  END
>  <pIC50>  (7) 
7.31

>  <ChEMBL_ID>  (7) 
CHEMBL59942

>  <document_journal>  (7) 
Bioorg. Med. Chem. Lett.

>  <bao_endpoint>  (7) 
BAO_0000190

>  <potential_duplicate>  (7) 
False

>  <uo_units>  (7) 
UO_0000065

>  <canonical_smiles>  (7) 
Fc1ccc(cc1)c2cccc(CN3CCN(CC3)c4ncccn4)c2

>  <parent_molecule_chembl_id>  (7) 
CHEMBL59942

>  <assay_type>  (7) 
B

>  <src_id>  (7) 
1

>  <ligand_efficiency>  (7) 
{u'le': u'0.38', u'bei': u'20.98', u'sei': u'22.66', u'lle': u'3.31'}

>  <standard_flag>  (7) 
True

>  <molecule_chembl_id>  (7) 
CHEMBL59942

>  <target_organism>  (7) 
Homo sapiens

>  <standard_units>  (7) 
nM

>  <record_id>  (7) 
108671

>  <document_chembl_id>  (7) 
CHEMBL1130912

>  <bao_format>  (7) 
BAO_0000219

>  <data_validity_description>  (7) 
None

>  <activity_id>  (7) 
47823

>  <standard_type>  (7) 
IC50

>  <target_chembl_id>  (7) 
CHEMBL217

>  <data_validity_comment>  (7) 
None

>  <published_value>  (7) 
49

>  <document_year>  (7) 
1998

>  <target_pref_name>  (7) 
Dopamine D2 receptor

>  <assay_chembl_id>  (7) 
CHEMBL671073

>  <standard_relation>  (7) 
=

>  <assay_description>  (7) 
Binding affinity to cloned human Dopamine receptor D2 expressed in A9L cells by [3H]spiperone displacement.

>  <published_relation>  (7) 
=

>  <standard_value>  (7) 
49

>  <qudt_units>  (7) 
http://www.openphacts.org/units/Nanomolar

>  <target_tax_id>  (7) 
9606

>  <bao_label>  (7) 
cell-based format

>  <published_units>  (7) 
nM

>  <pchembl_value>  (7) 
7.31

>  <published_type>  (7) 
IC50

>  <activity_comment>  (7) 
None

$$$$

     RDKit          

 26 29  0  0  0  0  0  0  0  0999 V2000
    0.0000    0.0000    0.0000 F   0  0  0  0  0  0  0  0  0  0  0  0
    0.0000    0.0000    0.0000 C   0  0  0  0  0  0  0  0  0  0  0  0
    0.0000    0.0000    0.0000 C   0  0  0  0  0  0  0  0  0  0  0  0
    0.0000    0.0000    0.0000 C   0  0  0  0  0  0  0  0  0  0  0  0
    0.0000    0.0000    0.0000 C   0  0  0  0  0  0  0  0  0  0  0  0
    0.0000    0.0000    0.0000 C   0  0  0  0  0  0  0  0  0  0  0  0
    0.0000    0.0000    0.0000 C   0  0  0  0  0  0  0  0  0  0  0  0
    0.0000    0.0000    0.0000 C   0  0  0  0  0  0  0  0  0  0  0  0
    0.0000    0.0000    0.0000 C   0  0  0  0  0  0  0  0  0  0  0  0
    0.0000    0.0000    0.0000 N   0  0  0  0  0  0  0  0  0  0  0  0
    0.0000    0.0000    0.0000 C   0  0  0  0  0  0  0  0  0  0  0  0
    0.0000    0.0000    0.0000 C   0  0  0  0  0  0  0  0  0  0  0  0
    0.0000    0.0000    0.0000 C   0  0  0  0  0  0  0  0  0  0  0  0
    0.0000    0.0000    0.0000 N   0  0  0  0  0  0  0  0  0  0  0  0
    0.0000    0.0000    0.0000 C   0  0  0  0  0  0  0  0  0  0  0  0
    0.0000    0.0000    0.0000 C   0  0  0  0  0  0  0  0  0  0  0  0
    0.0000    0.0000    0.0000 N   0  0  0  0  0  0  0  0  0  0  0  0
    0.0000    0.0000    0.0000 C   0  0  0  0  0  0  0  0  0  0  0  0
    0.0000    0.0000    0.0000 C   0  0  0  0  0  0  0  0  0  0  0  0
    0.0000    0.0000    0.0000 C   0  0  0  0  0  0  0  0  0  0  0  0
    0.0000    0.0000    0.0000 C   0  0  0  0  0  0  0  0  0  0  0  0
    0.0000    0.0000    0.0000 C   0  0  0  0  0  0  0  0  0  0  0  0
    0.0000    0.0000    0.0000 C   0  0  0  0  0  0  0  0  0  0  0  0
    0.0000    0.0000    0.0000 C   0  0  0  0  0  0  0  0  0  0  0  0
    0.0000    0.0000    0.0000 N   0  0  0  0  0  0  0  0  0  0  0  0
    0.0000    0.0000    0.0000 C   0  0  0  0  0  0  0  0  0  0  0  0
  1  2  1  0
  2  3  2  0
  3  4  1  0
  4  5  2  0
  5  6  1  0
  6  7  2  0
  5  8  1  0
  8  9  2  0
  9 10  1  0
 10 11  2  0
 11 12  1  0
 12 13  1  0
 13 14  1  0
 14 15  1  0
 15 16  1  0
 16 17  1  0
 17 18  1  0
 18 19  1  0
 17 20  1  0
 20 21  2  0
 21 22  1  0
 22 23  2  0
 23 24  1  0
 24 25  2  0
 12 26  2  0
  7  2  1  0
 26  8  1  0
 19 14  1  0
 25 20  1  0
M  END
>  <pIC50>  (8) 
7.22

>  <ChEMBL_ID>  (8) 
CHEMBL61657

>  <document_journal>  (8) 
Bioorg. Med. Chem. Lett.

>  <bao_endpoint>  (8) 
BAO_0000190

>  <potential_duplicate>  (8) 
False

>  <uo_units>  (8) 
UO_0000065

>  <canonical_smiles>  (8) 
Fc1ccc(cc1)c2cncc(CN3CCN(CC3)c4ccccn4)c2

>  <parent_molecule_chembl_id>  (8) 
CHEMBL61657

>  <assay_type>  (8) 
B

>  <src_id>  (8) 
1

>  <ligand_efficiency>  (8) 
{u'le': u'0.38', u'bei': u'20.73', u'sei': u'22.39', u'lle': u'3.73'}

>  <standard_flag>  (8) 
True

>  <molecule_chembl_id>  (8) 
CHEMBL61657

>  <target_organism>  (8) 
Homo sapiens

>  <standard_units>  (8) 
nM

>  <record_id>  (8) 
108654

>  <document_chembl_id>  (8) 
CHEMBL1130912

>  <bao_format>  (8) 
BAO_0000219

>  <data_validity_description>  (8) 
None

>  <activity_id>  (8) 
50520

>  <standard_type>  (8) 
IC50

>  <target_chembl_id>  (8) 
CHEMBL217

>  <data_validity_comment>  (8) 
None

>  <published_value>  (8) 
60

>  <document_year>  (8) 
1998

>  <target_pref_name>  (8) 
Dopamine D2 receptor

>  <assay_chembl_id>  (8) 
CHEMBL671073

>  <standard_relation>  (8) 
=

>  <assay_description>  (8) 
Binding affinity to cloned human Dopamine receptor D2 expressed in A9L cells by [3H]spiperone displacement.

>  <published_relation>  (8) 
=

>  <standard_value>  (8) 
60

>  <qudt_units>  (8) 
http://www.openphacts.org/units/Nanomolar

>  <target_tax_id>  (8) 
9606

>  <bao_label>  (8) 
cell-based format

>  <published_units>  (8) 
nM

>  <pchembl_value>  (8) 
7.22

>  <published_type>  (8) 
IC50

>  <activity_comment>  (8) 
None

$$$$

     RDKit          

 26 29  0  0  0  0  0  0  0  0999 V2000
    0.0000    0.0000    0.0000 F   0  0  0  0  0  0  0  0  0  0  0  0
    0.0000    0.0000    0.0000 C   0  0  0  0  0  0  0  0  0  0  0  0
    0.0000    0.0000    0.0000 C   0  0  0  0  0  0  0  0  0  0  0  0
    0.0000    0.0000    0.0000 C   0  0  0  0  0  0  0  0  0  0  0  0
    0.0000    0.0000    0.0000 C   0  0  0  0  0  0  0  0  0  0  0  0
    0.0000    0.0000    0.0000 C   0  0  0  0  0  0  0  0  0  0  0  0
    0.0000    0.0000    0.0000 C   0  0  0  0  0  0  0  0  0  0  0  0
    0.0000    0.0000    0.0000 C   0  0  0  0  0  0  0  0  0  0  0  0
    0.0000    0.0000    0.0000 C   0  0  0  0  0  0  0  0  0  0  0  0
    0.0000    0.0000    0.0000 N   0  0  0  0  0  0  0  0  0  0  0  0
    0.0000    0.0000    0.0000 C   0  0  0  0  0  0  0  0  0  0  0  0
    0.0000    0.0000    0.0000 C   0  0  0  0  0  0  0  0  0  0  0  0
    0.0000    0.0000    0.0000 C   0  0  0  0  0  0  0  0  0  0  0  0
    0.0000    0.0000    0.0000 N   0  0  0  0  0  0  0  0  0  0  0  0
    0.0000    0.0000    0.0000 C   0  0  0  0  0  0  0  0  0  0  0  0
    0.0000    0.0000    0.0000 C   0  0  0  0  0  0  0  0  0  0  0  0
    0.0000    0.0000    0.0000 N   0  0  0  0  0  0  0  0  0  0  0  0
    0.0000    0.0000    0.0000 C   0  0  0  0  0  0  0  0  0  0  0  0
    0.0000    0.0000    0.0000 C   0  0  0  0  0  0  0  0  0  0  0  0
    0.0000    0.0000    0.0000 C   0  0  0  0  0  0  0  0  0  0  0  0
    0.0000    0.0000    0.0000 N   0  0  0  0  0  0  0  0  0  0  0  0
    0.0000    0.0000    0.0000 C   0  0  0  0  0  0  0  0  0  0  0  0
    0.0000    0.0000    0.0000 C   0  0  0  0  0  0  0  0  0  0  0  0
    0.0000    0.0000    0.0000 C   0  0  0  0  0  0  0  0  0  0  0  0
    0.0000    0.0000    0.0000 N   0  0  0  0  0  0  0  0  0  0  0  0
    0.0000    0.0000    0.0000 C   0  0  0  0  0  0  0  0  0  0  0  0
  1  2  1  0
  2  3  2  0
  3  4  1  0
  4  5  2  0
  5  6  1  0
  6  7  2  0
  5  8  1  0
  8  9  2  0
  9 10  1  0
 10 11  2  0
 11 12  1  0
 12 13  1  0
 13 14  1  0
 14 15  1  0
 15 16  1  0
 16 17  1  0
 17 18  1  0
 18 19  1  0
 17 20  1  0
 20 21  2  0
 21 22  1  0
 22 23  2  0
 23 24  1  0
 24 25  2  0
 12 26  2  0
  7  2  1  0
 26  8  1  0
 19 14  1  0
 25 20  1  0
M  END
>  <pIC50>  (9) 
6.92

>  <ChEMBL_ID>  (9) 
CHEMBL302183

>  <document_journal>  (9) 
Bioorg. Med. Chem. Lett.

>  <bao_endpoint>  (9) 
BAO_0000190

>  <potential_duplicate>  (9) 
False

>  <uo_units>  (9) 
UO_0000065

>  <canonical_smiles>  (9) 
Fc1ccc(cc1)c2cncc(CN3CCN(CC3)c4ncccn4)c2

>  <parent_molecule_chembl_id>  (9) 
CHEMBL302183

>  <assay_type>  (9) 
B

>  <src_id>  (9) 
1

>  <ligand_efficiency>  (9) 
{u'le': u'0.36', u'bei': u'19.81', u'sei': u'15.33', u'lle': u'4.07'}

>  <standard_flag>  (9) 
True

>  <molecule_chembl_id>  (9) 
CHEMBL302183

>  <target_organism>  (9) 
Homo sapiens

>  <standard_units>  (9) 
nM

>  <record_id>  (9) 
108651

>  <document_chembl_id>  (9) 
CHEMBL1130912

>  <bao_format>  (9) 
BAO_0000219

>  <data_validity_description>  (9) 
None

>  <activity_id>  (9) 
55514

>  <standard_type>  (9) 
IC50

>  <target_chembl_id>  (9) 
CHEMBL217

>  <data_validity_comment>  (9) 
None

>  <published_value>  (9) 
120

>  <document_year>  (9) 
1998

>  <target_pref_name>  (9) 
Dopamine D2 receptor

>  <assay_chembl_id>  (9) 
CHEMBL671073

>  <standard_relation>  (9) 
=

>  <assay_description>  (9) 
Binding affinity to cloned human Dopamine receptor D2 expressed in A9L cells by [3H]spiperone displacement.

>  <published_relation>  (9) 
=

>  <standard_value>  (9) 
120

>  <qudt_units>  (9) 
http://www.openphacts.org/units/Nanomolar

>  <target_tax_id>  (9) 
9606

>  <bao_label>  (9) 
cell-based format

>  <published_units>  (9) 
nM

>  <pchembl_value>  (9) 
6.92

>  <published_type>  (9) 
IC50

>  <activity_comment>  (9) 
None

$$$$

     RDKit          

 26 30  0  0  0  0  0  0  0  0999 V2000
    0.0000    0.0000    0.0000 C   0  0  0  0  0  0  0  0  0  0  0  0
    0.0000    0.0000    0.0000 N   0  0  0  0  0  0  0  0  0  0  0  0
    0.0000    0.0000    0.0000 C   0  0  0  0  0  0  0  0  0  0  0  0
    0.0000    0.0000    0.0000 C   0  0  0  0  0  0  0  0  0  0  0  0
    0.0000    0.0000    0.0000 N   0  0  0  0  0  0  0  0  0  0  0  0
    0.0000    0.0000    0.0000 C   0  0  0  0  0  0  0  0  0  0  0  0
    0.0000    0.0000    0.0000 C   0  0  0  0  0  0  0  0  0  0  0  0
    0.0000    0.0000    0.0000 C   0  0  0  0  0  0  0  0  0  0  0  0
    0.0000    0.0000    0.0000 N   0  0  0  0  0  0  0  0  0  0  0  0
    0.0000    0.0000    0.0000 C   0  0  0  0  0  0  0  0  0  0  0  0
    0.0000    0.0000    0.0000 C   0  0  0  0  0  0  0  0  0  0  0  0
    0.0000    0.0000    0.0000 C   0  0  0  0  0  0  0  0  0  0  0  0
    0.0000    0.0000    0.0000 N   0  0  0  0  0  0  0  0  0  0  0  0
    0.0000    0.0000    0.0000 C   0  0  0  0  0  0  0  0  0  0  0  0
    0.0000    0.0000    0.0000 C   0  0  0  0  0  0  0  0  0  0  0  0
    0.0000    0.0000    0.0000 C   0  0  0  0  0  0  0  0  0  0  0  0
    0.0000    0.0000    0.0000 C   0  0  0  0  0  0  0  0  0  0  0  0
    0.0000    0.0000    0.0000 C   0  0  0  0  0  0  0  0  0  0  0  0
    0.0000    0.0000    0.0000 C   0  0  0  0  0  0  0  0  0  0  0  0
    0.0000    0.0000    0.0000 C   0  0  0  0  0  0  0  0  0  0  0  0
    0.0000    0.0000    0.0000 C   0  0  0  0  0  0  0  0  0  0  0  0
    0.0000    0.0000    0.0000 C   0  0  0  0  0  0  0  0  0  0  0  0
    0.0000    0.0000    0.0000 C   0  0  0  0  0  0  0  0  0  0  0  0
    0.0000    0.0000    0.0000 C   0  0  0  0  0  0  0  0  0  0  0  0
    0.0000    0.0000    0.0000 C   0  0  0  0  0  0  0  0  0  0  0  0
    0.0000    0.0000    0.0000 C   0  0  0  0  0  0  0  0  0  0  0  0
  1  2  1  0
  2  3  1  0
  3  4  1  0
  4  5  1  0
  5  6  1  0
  6  7  1  0
  5  8  1  0
  8  9  2  0
  9 10  1  0
 10 11  2  0
 11 12  1  0
 12 13  2  0
  1 14  1  0
 14 15  2  0
 15 16  1  0
 16 17  2  0
 17 18  1  0
 18 19  1  0
 19 20  1  0
 20 21  2  0
 21 22  1  0
 22 23  2  0
 23 24  1  0
 24 25  2  0
 25 26  1  0
  7  2  1  0
 13  8  1  0
 26 14  1  0
 26 18  2  0
 25 20  1  0
M  END
>  <pIC50>  (10) 
5.64

>  <ChEMBL_ID>  (10) 
CHEMBL304692

>  <document_journal>  (10) 
Bioorg. Med. Chem. Lett.

>  <bao_endpoint>  (10) 
BAO_0000190

>  <potential_duplicate>  (10) 
False

>  <uo_units>  (10) 
UO_0000065

>  <canonical_smiles>  (10) 
C(N1CCN(CC1)c2ncccn2)c3cccc4Cc5ccccc5c34

>  <parent_molecule_chembl_id>  (10) 
CHEMBL304692

>  <assay_type>  (10) 
B

>  <src_id>  (10) 
1

>  <ligand_efficiency>  (10) 
{u'le': u'0.3', u'bei': u'16.46', u'sei': u'17.48', u'lle': u'1.7'}

>  <standard_flag>  (10) 
True

>  <molecule_chembl_id>  (10) 
CHEMBL304692

>  <target_organism>  (10) 
Homo sapiens

>  <standard_units>  (10) 
nM

>  <record_id>  (10) 
108670

>  <document_chembl_id>  (10) 
CHEMBL1130912

>  <bao_format>  (10) 
BAO_0000219

>  <data_validity_description>  (10) 
None

>  <activity_id>  (10) 
57998

>  <standard_type>  (10) 
IC50

>  <target_chembl_id>  (10) 
CHEMBL217

>  <data_validity_comment>  (10) 
None

>  <published_value>  (10) 
2300

>  <document_year>  (10) 
1998

>  <target_pref_name>  (10) 
Dopamine D2 receptor

>  <assay_chembl_id>  (10) 
CHEMBL671073

>  <standard_relation>  (10) 
=

>  <assay_description>  (10) 
Binding affinity to cloned human Dopamine receptor D2 expressed in A9L cells by [3H]spiperone displacement.

>  <published_relation>  (10) 
=

>  <standard_value>  (10) 
2300

>  <qudt_units>  (10) 
http://www.openphacts.org/units/Nanomolar

>  <target_tax_id>  (10) 
9606

>  <bao_label>  (10) 
cell-based format

>  <published_units>  (10) 
nM

>  <pchembl_value>  (10) 
5.64

>  <published_type>  (10) 
IC50

>  <activity_comment>  (10) 
None

$$$$

     RDKit          

 23 26  0  0  0  0  0  0  0  0999 V2000
    0.0000    0.0000    0.0000 Cl  0  0  0  0  0  0  0  0  0  0  0  0
    0.0000    0.0000    0.0000 C   0  0  0  0  0  0  0  0  0  0  0  0
    0.0000    0.0000    0.0000 C   0  0  0  0  0  0  0  0  0  0  0  0
    0.0000    0.0000    0.0000 C   0  0  0  0  0  0  0  0  0  0  0  0
    0.0000    0.0000    0.0000 C   0  0  0  0  0  0  0  0  0  0  0  0
    0.0000    0.0000    0.0000 C   0  0  0  0  0  0  0  0  0  0  0  0
    0.0000    0.0000    0.0000 C   0  0  0  0  0  0  0  0  0  0  0  0
    0.0000    0.0000    0.0000 N   0  0  0  0  0  0  0  0  0  0  0  0
    0.0000    0.0000    0.0000 C   0  0  0  0  0  0  0  0  0  0  0  0
    0.0000    0.0000    0.0000 C   0  0  0  0  0  0  0  0  0  0  0  0
    0.0000    0.0000    0.0000 N   0  0  0  0  0  0  0  0  0  0  0  0
    0.0000    0.0000    0.0000 C   0  0  0  0  0  0  0  0  0  0  0  0
    0.0000    0.0000    0.0000 C   0  0  0  0  0  0  0  0  0  0  0  0
    0.0000    0.0000    0.0000 C   0  0  0  0  0  0  0  0  0  0  0  0
    0.0000    0.0000    0.0000 N   0  0  0  0  0  0  0  0  0  0  0  0
    0.0000    0.0000    0.0000 C   0  0  0  0  0  0  0  0  0  0  0  0
    0.0000    0.0000    0.0000 N   0  0  0  0  0  0  0  0  0  0  0  0
    0.0000    0.0000    0.0000 C   0  0  0  0  0  0  0  0  0  0  0  0
    0.0000    0.0000    0.0000 C   0  0  0  0  0  0  0  0  0  0  0  0
    0.0000    0.0000    0.0000 C   0  0  0  0  0  0  0  0  0  0  0  0
    0.0000    0.0000    0.0000 C   0  0  0  0  0  0  0  0  0  0  0  0
    0.0000    0.0000    0.0000 C   0  0  0  0  0  0  0  0  0  0  0  0
    0.0000    0.0000    0.0000 C   0  0  0  0  0  0  0  0  0  0  0  0
  1  2  1  0
  2  3  2  0
  3  4  1  0
  4  5  2  0
  5  6  1  0
  6  7  2  0
  5  8  1  0
  8  9  1  0
  9 10  1  0
 10 11  1  0
 11 12  1  0
 12 13  1  0
 13 14  2  0
 14 15  1  0
 15 16  1  0
 16 17  2  0
 17 18  1  0
 18 19  2  0
 19 20  1  0
 20 21  2  0
 11 22  1  0
 22 23  1  0
  7  2  1  0
 23  8  1  0
 21 13  1  0
 21 16  1  0
M  END
>  <pIC50>  (11) 
6.44

>  <ChEMBL_ID>  (11) 
CHEMBL555670

>  <document_journal>  (11) 
Bioorg. Med. Chem. Lett.

>  <bao_endpoint>  (11) 
BAO_0000190

>  <potential_duplicate>  (11) 
False

>  <uo_units>  (11) 
UO_0000065

>  <canonical_smiles>  (11) 
Cl.Clc1ccc(cc1)N2CCN(Cc3c[nH]c4ncccc34)CC2

>  <parent_molecule_chembl_id>  (11) 
CHEMBL267014

>  <assay_type>  (11) 
B

>  <src_id>  (11) 
1

>  <ligand_efficiency>  (11) 
{u'le': u'0.38', u'bei': u'19.72', u'sei': u'18.33', u'lle': u'2.9'}

>  <standard_flag>  (11) 
True

>  <molecule_chembl_id>  (11) 
CHEMBL555670

>  <target_organism>  (11) 
Homo sapiens

>  <standard_units>  (11) 
nM

>  <record_id>  (11) 
108668

>  <document_chembl_id>  (11) 
CHEMBL1130912

>  <bao_format>  (11) 
BAO_0000219

>  <data_validity_description>  (11) 
None

>  <activity_id>  (11) 
59201

>  <standard_type>  (11) 
IC50

>  <target_chembl_id>  (11) 
CHEMBL217

>  <data_validity_comment>  (11) 
None

>  <published_value>  (11) 
360

>  <document_year>  (11) 
1998

>  <target_pref_name>  (11) 
Dopamine D2 receptor

>  <assay_chembl_id>  (11) 
CHEMBL671073

>  <standard_relation>  (11) 
=

>  <assay_description>  (11) 
Binding affinity to cloned human Dopamine receptor D2 expressed in A9L cells by [3H]spiperone displacement.

>  <published_relation>  (11) 
=

>  <standard_value>  (11) 
360

>  <qudt_units>  (11) 
http://www.openphacts.org/units/Nanomolar

>  <target_tax_id>  (11) 
9606

>  <bao_label>  (11) 
cell-based format

>  <published_units>  (11) 
nM

>  <pchembl_value>  (11) 
6.44

>  <published_type>  (11) 
IC50

>  <activity_comment>  (11) 
None

$$$$

     RDKit          

 26 29  0  0  0  0  0  0  0  0999 V2000
    0.0000    0.0000    0.0000 F   0  0  0  0  0  0  0  0  0  0  0  0
    0.0000    0.0000    0.0000 C   0  0  0  0  0  0  0  0  0  0  0  0
    0.0000    0.0000    0.0000 C   0  0  0  0  0  0  0  0  0  0  0  0
    0.0000    0.0000    0.0000 C   0  0  0  0  0  0  0  0  0  0  0  0
    0.0000    0.0000    0.0000 C   0  0  0  0  0  0  0  0  0  0  0  0
    0.0000    0.0000    0.0000 C   0  0  0  0  0  0  0  0  0  0  0  0
    0.0000    0.0000    0.0000 C   0  0  0  0  0  0  0  0  0  0  0  0
    0.0000    0.0000    0.0000 C   0  0  0  0  0  0  0  0  0  0  0  0
    0.0000    0.0000    0.0000 C   0  0  0  0  0  0  0  0  0  0  0  0
    0.0000    0.0000    0.0000 C   0  0  0  0  0  0  0  0  0  0  0  0
    0.0000    0.0000    0.0000 C   0  0  0  0  0  0  0  0  0  0  0  0
    0.0000    0.0000    0.0000 C   0  0  0  0  0  0  0  0  0  0  0  0
    0.0000    0.0000    0.0000 C   0  0  0  0  0  0  0  0  0  0  0  0
    0.0000    0.0000    0.0000 N   0  0  0  0  0  0  0  0  0  0  0  0
    0.0000    0.0000    0.0000 C   0  0  0  0  0  0  0  0  0  0  0  0
    0.0000    0.0000    0.0000 C   0  0  0  0  0  0  0  0  0  0  0  0
    0.0000    0.0000    0.0000 N   0  0  0  0  0  0  0  0  0  0  0  0
    0.0000    0.0000    0.0000 C   0  0  0  0  0  0  0  0  0  0  0  0
    0.0000    0.0000    0.0000 C   0  0  0  0  0  0  0  0  0  0  0  0
    0.0000    0.0000    0.0000 C   0  0  0  0  0  0  0  0  0  0  0  0
    0.0000    0.0000    0.0000 N   0  0  0  0  0  0  0  0  0  0  0  0
    0.0000    0.0000    0.0000 C   0  0  0  0  0  0  0  0  0  0  0  0
    0.0000    0.0000    0.0000 C   0  0  0  0  0  0  0  0  0  0  0  0
    0.0000    0.0000    0.0000 C   0  0  0  0  0  0  0  0  0  0  0  0
    0.0000    0.0000    0.0000 N   0  0  0  0  0  0  0  0  0  0  0  0
    0.0000    0.0000    0.0000 C   0  0  0  0  0  0  0  0  0  0  0  0
  1  2  1  0
  2  3  2  0
  3  4  1  0
  4  5  2  0
  5  6  1  0
  6  7  2  0
  7  8  1  0
  8  9  2  0
  9 10  1  0
 10 11  2  0
 11 12  1  0
 12 13  1  0
 13 14  1  0
 14 15  1  0
 15 16  1  0
 16 17  1  0
 17 18  1  0
 18 19  1  0
 17 20  1  0
 20 21  2  0
 21 22  1  0
 22 23  2  0
 23 24  1  0
 24 25  2  0
 12 26  2  0
  7  2  1  0
 26  8  1  0
 19 14  1  0
 25 20  1  0
M  END
>  <pIC50>  (12) 
6.6

>  <ChEMBL_ID>  (12) 
CHEMBL291380

>  <document_journal>  (12) 
Bioorg. Med. Chem. Lett.

>  <bao_endpoint>  (12) 
BAO_0000190

>  <potential_duplicate>  (12) 
False

>  <uo_units>  (12) 
UO_0000065

>  <canonical_smiles>  (12) 
Fc1ccccc1c2cccc(CN3CCN(CC3)c4ncccn4)c2

>  <parent_molecule_chembl_id>  (12) 
CHEMBL291380

>  <assay_type>  (12) 
B

>  <src_id>  (12) 
1

>  <ligand_efficiency>  (12) 
{u'le': u'0.35', u'bei': u'18.95', u'sei': u'20.47', u'lle': u'2.6'}

>  <standard_flag>  (12) 
True

>  <molecule_chembl_id>  (12) 
CHEMBL291380

>  <target_organism>  (12) 
Homo sapiens

>  <standard_units>  (12) 
nM

>  <record_id>  (12) 
108666

>  <document_chembl_id>  (12) 
CHEMBL1130912

>  <bao_format>  (12) 
BAO_0000219

>  <data_validity_description>  (12) 
None

>  <activity_id>  (12) 
63216

>  <standard_type>  (12) 
IC50

>  <target_chembl_id>  (12) 
CHEMBL217

>  <data_validity_comment>  (12) 
None

>  <published_value>  (12) 
250

>  <document_year>  (12) 
1998

>  <target_pref_name>  (12) 
Dopamine D2 receptor

>  <assay_chembl_id>  (12) 
CHEMBL671073

>  <standard_relation>  (12) 
=

>  <assay_description>  (12) 
Binding affinity to cloned human Dopamine receptor D2 expressed in A9L cells by [3H]spiperone displacement.

>  <published_relation>  (12) 
=

>  <standard_value>  (12) 
250

>  <qudt_units>  (12) 
http://www.openphacts.org/units/Nanomolar

>  <target_tax_id>  (12) 
9606

>  <bao_label>  (12) 
cell-based format

>  <published_units>  (12) 
nM

>  <pchembl_value>  (12) 
6.6

>  <published_type>  (12) 
IC50

>  <activity_comment>  (12) 
None

$$$$

     RDKit          

 27 30  0  0  0  0  0  0  0  0999 V2000
    0.0000    0.0000    0.0000 C   0  0  0  0  0  0  0  0  0  0  0  0
    0.0000    0.0000    0.0000 O   0  0  0  0  0  0  0  0  0  0  0  0
    0.0000    0.0000    0.0000 C   0  0  0  0  0  0  0  0  0  0  0  0
    0.0000    0.0000    0.0000 C   0  0  0  0  0  0  0  0  0  0  0  0
    0.0000    0.0000    0.0000 C   0  0  0  0  0  0  0  0  0  0  0  0
    0.0000    0.0000    0.0000 C   0  0  0  0  0  0  0  0  0  0  0  0
    0.0000    0.0000    0.0000 C   0  0  0  0  0  0  0  0  0  0  0  0
    0.0000    0.0000    0.0000 C   0  0  0  0  0  0  0  0  0  0  0  0
    0.0000    0.0000    0.0000 C   0  0  0  0  0  0  0  0  0  0  0  0
    0.0000    0.0000    0.0000 C   0  0  0  0  0  0  0  0  0  0  0  0
    0.0000    0.0000    0.0000 C   0  0  0  0  0  0  0  0  0  0  0  0
    0.0000    0.0000    0.0000 C   0  0  0  0  0  0  0  0  0  0  0  0
    0.0000    0.0000    0.0000 C   0  0  0  0  0  0  0  0  0  0  0  0
    0.0000    0.0000    0.0000 C   0  0  0  0  0  0  0  0  0  0  0  0
    0.0000    0.0000    0.0000 N   0  0  0  0  0  0  0  0  0  0  0  0
    0.0000    0.0000    0.0000 C   0  0  0  0  0  0  0  0  0  0  0  0
    0.0000    0.0000    0.0000 C   0  0  0  0  0  0  0  0  0  0  0  0
    0.0000    0.0000    0.0000 N   0  0  0  0  0  0  0  0  0  0  0  0
    0.0000    0.0000    0.0000 C   0  0  0  0  0  0  0  0  0  0  0  0
    0.0000    0.0000    0.0000 C   0  0  0  0  0  0  0  0  0  0  0  0
    0.0000    0.0000    0.0000 C   0  0  0  0  0  0  0  0  0  0  0  0
    0.0000    0.0000    0.0000 N   0  0  0  0  0  0  0  0  0  0  0  0
    0.0000    0.0000    0.0000 C   0  0  0  0  0  0  0  0  0  0  0  0
    0.0000    0.0000    0.0000 C   0  0  0  0  0  0  0  0  0  0  0  0
    0.0000    0.0000    0.0000 C   0  0  0  0  0  0  0  0  0  0  0  0
    0.0000    0.0000    0.0000 N   0  0  0  0  0  0  0  0  0  0  0  0
    0.0000    0.0000    0.0000 C   0  0  0  0  0  0  0  0  0  0  0  0
  1  2  1  0
  2  3  1  0
  3  4  2  0
  4  5  1  0
  5  6  2  0
  6  7  1  0
  7  8  2  0
  7  9  1  0
  9 10  2  0
 10 11  1  0
 11 12  2  0
 12 13  1  0
 13 14  1  0
 14 15  1  0
 15 16  1  0
 16 17  1  0
 17 18  1  0
 18 19  1  0
 19 20  1  0
 18 21  1  0
 21 22  2  0
 22 23  1  0
 23 24  2  0
 24 25  1  0
 25 26  2  0
 13 27  2  0
  8  3  1  0
 27  9  1  0
 20 15  1  0
 26 21  1  0
M  END
>  <pIC50>  (13) 
6.31

>  <ChEMBL_ID>  (13) 
CHEMBL64671

>  <document_journal>  (13) 
Bioorg. Med. Chem. Lett.

>  <bao_endpoint>  (13) 
BAO_0000190

>  <potential_duplicate>  (13) 
False

>  <uo_units>  (13) 
UO_0000065

>  <canonical_smiles>  (13) 
COc1cccc(c1)c2cccc(CN3CCN(CC3)c4ncccn4)c2

>  <parent_molecule_chembl_id>  (13) 
CHEMBL64671

>  <assay_type>  (13) 
B

>  <src_id>  (13) 
1

>  <ligand_efficiency>  (13) 
{u'le': u'0.32', u'bei': u'17.51', u'sei': u'15.21', u'lle': u'2.53'}

>  <standard_flag>  (13) 
True

>  <molecule_chembl_id>  (13) 
CHEMBL64671

>  <target_organism>  (13) 
Homo sapiens

>  <standard_units>  (13) 
nM

>  <record_id>  (13) 
108664

>  <document_chembl_id>  (13) 
CHEMBL1130912

>  <bao_format>  (13) 
BAO_0000219

>  <data_validity_description>  (13) 
None

>  <activity_id>  (13) 
65943

>  <standard_type>  (13) 
IC50

>  <target_chembl_id>  (13) 
CHEMBL217

>  <data_validity_comment>  (13) 
None

>  <published_value>  (13) 
490

>  <document_year>  (13) 
1998

>  <target_pref_name>  (13) 
Dopamine D2 receptor

>  <assay_chembl_id>  (13) 
CHEMBL671073

>  <standard_relation>  (13) 
=

>  <assay_description>  (13) 
Binding affinity to cloned human Dopamine receptor D2 expressed in A9L cells by [3H]spiperone displacement.

>  <published_relation>  (13) 
=

>  <standard_value>  (13) 
490

>  <qudt_units>  (13) 
http://www.openphacts.org/units/Nanomolar

>  <target_tax_id>  (13) 
9606

>  <bao_label>  (13) 
cell-based format

>  <published_units>  (13) 
nM

>  <pchembl_value>  (13) 
6.31

>  <published_type>  (13) 
IC50

>  <activity_comment>  (13) 
None

$$$$

     RDKit          

 26 29  0  0  0  0  0  0  0  0999 V2000
    0.0000    0.0000    0.0000 F   0  0  0  0  0  0  0  0  0  0  0  0
    0.0000    0.0000    0.0000 C   0  0  0  0  0  0  0  0  0  0  0  0
    0.0000    0.0000    0.0000 C   0  0  0  0  0  0  0  0  0  0  0  0
    0.0000    0.0000    0.0000 C   0  0  0  0  0  0  0  0  0  0  0  0
    0.0000    0.0000    0.0000 C   0  0  0  0  0  0  0  0  0  0  0  0
    0.0000    0.0000    0.0000 C   0  0  0  0  0  0  0  0  0  0  0  0
    0.0000    0.0000    0.0000 C   0  0  0  0  0  0  0  0  0  0  0  0
    0.0000    0.0000    0.0000 C   0  0  0  0  0  0  0  0  0  0  0  0
    0.0000    0.0000    0.0000 C   0  0  0  0  0  0  0  0  0  0  0  0
    0.0000    0.0000    0.0000 C   0  0  0  0  0  0  0  0  0  0  0  0
    0.0000    0.0000    0.0000 C   0  0  0  0  0  0  0  0  0  0  0  0
    0.0000    0.0000    0.0000 C   0  0  0  0  0  0  0  0  0  0  0  0
    0.0000    0.0000    0.0000 C   0  0  0  0  0  0  0  0  0  0  0  0
    0.0000    0.0000    0.0000 N   0  0  0  0  0  0  0  0  0  0  0  0
    0.0000    0.0000    0.0000 C   0  0  0  0  0  0  0  0  0  0  0  0
    0.0000    0.0000    0.0000 C   0  0  0  0  0  0  0  0  0  0  0  0
    0.0000    0.0000    0.0000 N   0  0  0  0  0  0  0  0  0  0  0  0
    0.0000    0.0000    0.0000 C   0  0  0  0  0  0  0  0  0  0  0  0
    0.0000    0.0000    0.0000 C   0  0  0  0  0  0  0  0  0  0  0  0
    0.0000    0.0000    0.0000 C   0  0  0  0  0  0  0  0  0  0  0  0
    0.0000    0.0000    0.0000 N   0  0  0  0  0  0  0  0  0  0  0  0
    0.0000    0.0000    0.0000 C   0  0  0  0  0  0  0  0  0  0  0  0
    0.0000    0.0000    0.0000 C   0  0  0  0  0  0  0  0  0  0  0  0
    0.0000    0.0000    0.0000 C   0  0  0  0  0  0  0  0  0  0  0  0
    0.0000    0.0000    0.0000 N   0  0  0  0  0  0  0  0  0  0  0  0
    0.0000    0.0000    0.0000 C   0  0  0  0  0  0  0  0  0  0  0  0
  1  2  1  0
  2  3  2  0
  3  4  1  0
  4  5  2  0
  5  6  1  0
  6  7  2  0
  6  8  1  0
  8  9  2  0
  9 10  1  0
 10 11  2  0
 11 12  1  0
 12 13  1  0
 13 14  1  0
 14 15  1  0
 15 16  1  0
 16 17  1  0
 17 18  1  0
 18 19  1  0
 17 20  1  0
 20 21  2  0
 21 22  1  0
 22 23  2  0
 23 24  1  0
 24 25  2  0
 12 26  2  0
  7  2  1  0
 26  8  1  0
 19 14  1  0
 25 20  1  0
M  END
>  <pIC50>  (14) 
7.09

>  <ChEMBL_ID>  (14) 
CHEMBL62829

>  <document_journal>  (14) 
Bioorg. Med. Chem. Lett.

>  <bao_endpoint>  (14) 
BAO_0000190

>  <potential_duplicate>  (14) 
False

>  <uo_units>  (14) 
UO_0000065

>  <canonical_smiles>  (14) 
Fc1cccc(c1)c2cccc(CN3CCN(CC3)c4ncccn4)c2

>  <parent_molecule_chembl_id>  (14) 
CHEMBL62829

>  <assay_type>  (14) 
B

>  <src_id>  (14) 
1

>  <ligand_efficiency>  (14) 
{u'le': u'0.37', u'bei': u'20.35', u'sei': u'21.98', u'lle': u'3.09'}

>  <standard_flag>  (14) 
True

>  <molecule_chembl_id>  (14) 
CHEMBL62829

>  <target_organism>  (14) 
Homo sapiens

>  <standard_units>  (14) 
nM

>  <record_id>  (14) 
108657

>  <document_chembl_id>  (14) 
CHEMBL1130912

>  <bao_format>  (14) 
BAO_0000219

>  <data_validity_description>  (14) 
None

>  <activity_id>  (14) 
67125

>  <standard_type>  (14) 
IC50

>  <target_chembl_id>  (14) 
CHEMBL217

>  <data_validity_comment>  (14) 
None

>  <published_value>  (14) 
81

>  <document_year>  (14) 
1998

>  <target_pref_name>  (14) 
Dopamine D2 receptor

>  <assay_chembl_id>  (14) 
CHEMBL671073

>  <standard_relation>  (14) 
=

>  <assay_description>  (14) 
Binding affinity to cloned human Dopamine receptor D2 expressed in A9L cells by [3H]spiperone displacement.

>  <published_relation>  (14) 
=

>  <standard_value>  (14) 
81

>  <qudt_units>  (14) 
http://www.openphacts.org/units/Nanomolar

>  <target_tax_id>  (14) 
9606

>  <bao_label>  (14) 
cell-based format

>  <published_units>  (14) 
nM

>  <pchembl_value>  (14) 
7.09

>  <published_type>  (14) 
IC50

>  <activity_comment>  (14) 
None

$$$$

     RDKit          

 25 27  0  0  0  0  0  0  0  0999 V2000
    0.0000    0.0000    0.0000 C   0  0  0  0  0  0  0  0  0  0  0  0
    0.0000    0.0000    0.0000 C   0  0  0  0  0  0  0  0  0  0  0  0
    0.0000    0.0000    0.0000 C   0  0  0  0  0  0  0  0  0  0  0  0
    0.0000    0.0000    0.0000 O   0  0  0  0  0  0  0  0  0  0  0  0
    0.0000    0.0000    0.0000 C   0  0  0  0  0  0  0  0  0  0  0  0
    0.0000    0.0000    0.0000 C   0  0  0  0  0  0  0  0  0  0  0  0
    0.0000    0.0000    0.0000 C   0  0  0  0  0  0  0  0  0  0  0  0
    0.0000    0.0000    0.0000 C   0  0  0  0  0  0  0  0  0  0  0  0
    0.0000    0.0000    0.0000 N   0  0  0  0  0  0  0  0  0  0  0  0
    0.0000    0.0000    0.0000 C   0  0  0  0  0  0  0  0  0  0  0  0
    0.0000    0.0000    0.0000 N   0  0  0  0  0  0  0  0  0  0  0  0
    0.0000    0.0000    0.0000 C   0  0  0  0  0  0  0  0  0  0  0  0
    0.0000    0.0000    0.0000 C   0  0  0  0  0  0  0  0  0  0  0  0
    0.0000    0.0000    0.0000 C   0  0  0  0  0  0  0  0  0  0  0  0
    0.0000    0.0000    0.0000 C   0  0  0  0  0  0  0  0  0  0  0  0
    0.0000    0.0000    0.0000 N   0  0  0  0  0  0  0  0  0  0  0  0
    0.0000    0.0000    0.0000 C   0  0  0  0  0  0  0  0  0  0  0  0
    0.0000    0.0000    0.0000 C   0  0  0  0  0  0  0  0  0  0  0  0
    0.0000    0.0000    0.0000 C   0  0  0  0  0  0  0  0  0  0  0  0
    0.0000    0.0000    0.0000 C   0  0  0  0  0  0  0  0  0  0  0  0
    0.0000    0.0000    0.0000 C   0  0  0  0  0  0  0  0  0  0  0  0
    0.0000    0.0000    0.0000 C   0  0  0  0  0  0  0  0  0  0  0  0
    0.0000    0.0000    0.0000 C   0  0  0  0  0  0  0  0  0  0  0  0
    0.0000    0.0000    0.0000 C   0  0  0  0  0  0  0  0  0  0  0  0
    0.0000    0.0000    0.0000 C   0  0  0  0  0  0  0  0  0  0  0  0
  1  2  1  0
  2  3  1  0
  2  4  1  0
  4  5  1  0
  5  6  2  0
  6  7  1  0
  7  8  2  0
  8  9  1  0
  9 10  2  0
 10 11  1  0
 11 12  1  0
 11 13  1  0
 13 14  1  0
 14 15  1  0
 15 16  1  0
 16 17  1  0
 17 18  1  0
 18 19  2  0
 19 20  1  0
 20 21  2  0
 21 22  1  0
 22 23  2  0
 16 24  1  0
 24 25  1  0
 10  5  1  0
 25 13  1  0
 23 18  1  0
M  END
>  <pIC50>  (15) 
6.21

>  <ChEMBL_ID>  (15) 
CHEMBL64119

>  <document_journal>  (15) 
Bioorg. Med. Chem. Lett.

>  <bao_endpoint>  (15) 
BAO_0000190

>  <potential_duplicate>  (15) 
False

>  <uo_units>  (15) 
UO_0000065

>  <canonical_smiles>  (15) 
CC(C)Oc1cccnc1N(C)C2CCN(Cc3ccccc3)CC2.OC(=O)\C=C/C(=O)O

>  <parent_molecule_chembl_id>  (15) 
CHEMBL1179189

>  <assay_type>  (15) 
B

>  <src_id>  (15) 
1

>  <ligand_efficiency>  (15) 
{u'le': u'0.34', u'bei': u'18.29', u'sei': u'21.7', u'lle': u'2.43'}

>  <standard_flag>  (15) 
True

>  <molecule_chembl_id>  (15) 
CHEMBL64119

>  <target_organism>  (15) 
Homo sapiens

>  <standard_units>  (15) 
nM

>  <record_id>  (15) 
108667

>  <document_chembl_id>  (15) 
CHEMBL1130912

>  <bao_format>  (15) 
BAO_0000219

>  <data_validity_description>  (15) 
None

>  <activity_id>  (15) 
67130

>  <standard_type>  (15) 
IC50

>  <target_chembl_id>  (15) 
CHEMBL217

>  <data_validity_comment>  (15) 
None

>  <published_value>  (15) 
620

>  <document_year>  (15) 
1998

>  <target_pref_name>  (15) 
Dopamine D2 receptor

>  <assay_chembl_id>  (15) 
CHEMBL671073

>  <standard_relation>  (15) 
=

>  <assay_description>  (15) 
Binding affinity to cloned human Dopamine receptor D2 expressed in A9L cells by [3H]spiperone displacement.

>  <published_relation>  (15) 
=

>  <standard_value>  (15) 
620

>  <qudt_units>  (15) 
http://www.openphacts.org/units/Nanomolar

>  <target_tax_id>  (15) 
9606

>  <bao_label>  (15) 
cell-based format

>  <published_units>  (15) 
nM

>  <pchembl_value>  (15) 
6.21

>  <published_type>  (15) 
IC50

>  <activity_comment>  (15) 
None

$$$$

     RDKit          

 26 29  0  0  0  0  0  0  0  0999 V2000
    0.0000    0.0000    0.0000 F   0  0  0  0  0  0  0  0  0  0  0  0
    0.0000    0.0000    0.0000 C   0  0  0  0  0  0  0  0  0  0  0  0
    0.0000    0.0000    0.0000 C   0  0  0  0  0  0  0  0  0  0  0  0
    0.0000    0.0000    0.0000 C   0  0  0  0  0  0  0  0  0  0  0  0
    0.0000    0.0000    0.0000 C   0  0  0  0  0  0  0  0  0  0  0  0
    0.0000    0.0000    0.0000 C   0  0  0  0  0  0  0  0  0  0  0  0
    0.0000    0.0000    0.0000 C   0  0  0  0  0  0  0  0  0  0  0  0
    0.0000    0.0000    0.0000 C   0  0  0  0  0  0  0  0  0  0  0  0
    0.0000    0.0000    0.0000 C   0  0  0  0  0  0  0  0  0  0  0  0
    0.0000    0.0000    0.0000 N   0  0  0  0  0  0  0  0  0  0  0  0
    0.0000    0.0000    0.0000 C   0  0  0  0  0  0  0  0  0  0  0  0
    0.0000    0.0000    0.0000 C   0  0  0  0  0  0  0  0  0  0  0  0
    0.0000    0.0000    0.0000 C   0  0  0  0  0  0  0  0  0  0  0  0
    0.0000    0.0000    0.0000 N   0  0  0  0  0  0  0  0  0  0  0  0
    0.0000    0.0000    0.0000 C   0  0  0  0  0  0  0  0  0  0  0  0
    0.0000    0.0000    0.0000 C   0  0  0  0  0  0  0  0  0  0  0  0
    0.0000    0.0000    0.0000 N   0  0  0  0  0  0  0  0  0  0  0  0
    0.0000    0.0000    0.0000 C   0  0  0  0  0  0  0  0  0  0  0  0
    0.0000    0.0000    0.0000 C   0  0  0  0  0  0  0  0  0  0  0  0
    0.0000    0.0000    0.0000 C   0  0  0  0  0  0  0  0  0  0  0  0
    0.0000    0.0000    0.0000 C   0  0  0  0  0  0  0  0  0  0  0  0
    0.0000    0.0000    0.0000 C   0  0  0  0  0  0  0  0  0  0  0  0
    0.0000    0.0000    0.0000 C   0  0  0  0  0  0  0  0  0  0  0  0
    0.0000    0.0000    0.0000 C   0  0  0  0  0  0  0  0  0  0  0  0
    0.0000    0.0000    0.0000 C   0  0  0  0  0  0  0  0  0  0  0  0
    0.0000    0.0000    0.0000 C   0  0  0  0  0  0  0  0  0  0  0  0
  1  2  1  0
  2  3  2  0
  3  4  1  0
  4  5  2  0
  5  6  1  0
  6  7  2  0
  5  8  1  0
  8  9  2  0
  9 10  1  0
 10 11  2  0
 11 12  1  0
 12 13  1  0
 13 14  1  0
 14 15  1  0
 15 16  1  0
 16 17  1  0
 17 18  1  0
 18 19  1  0
 17 20  1  0
 20 21  2  0
 21 22  1  0
 22 23  2  0
 23 24  1  0
 24 25  2  0
 12 26  2  0
  7  2  1  0
 26  8  1  0
 19 14  1  0
 25 20  1  0
M  END
>  <pIC50>  (16) 
7.64

>  <ChEMBL_ID>  (16) 
CHEMBL302904

>  <document_journal>  (16) 
Bioorg. Med. Chem. Lett.

>  <bao_endpoint>  (16) 
BAO_0000190

>  <potential_duplicate>  (16) 
False

>  <uo_units>  (16) 
UO_0000065

>  <canonical_smiles>  (16) 
Fc1ccc(cc1)c2cncc(CN3CCN(CC3)c4ccccc4)c2

>  <parent_molecule_chembl_id>  (16) 
CHEMBL302904

>  <assay_type>  (16) 
B

>  <src_id>  (16) 
1

>  <ligand_efficiency>  (16) 
{u'le': u'0.4', u'bei': u'21.99', u'sei': u'39.43', u'lle': u'3.53'}

>  <standard_flag>  (16) 
True

>  <molecule_chembl_id>  (16) 
CHEMBL302904

>  <target_organism>  (16) 
Homo sapiens

>  <standard_units>  (16) 
nM

>  <record_id>  (16) 
108656

>  <document_chembl_id>  (16) 
CHEMBL1130912

>  <bao_format>  (16) 
BAO_0000219

>  <data_validity_description>  (16) 
None

>  <activity_id>  (16) 
68341

>  <standard_type>  (16) 
IC50

>  <target_chembl_id>  (16) 
CHEMBL217

>  <data_validity_comment>  (16) 
None

>  <published_value>  (16) 
23

>  <document_year>  (16) 
1998

>  <target_pref_name>  (16) 
Dopamine D2 receptor

>  <assay_chembl_id>  (16) 
CHEMBL671073

>  <standard_relation>  (16) 
=

>  <assay_description>  (16) 
Binding affinity to cloned human Dopamine receptor D2 expressed in A9L cells by [3H]spiperone displacement.

>  <published_relation>  (16) 
=

>  <standard_value>  (16) 
23

>  <qudt_units>  (16) 
http://www.openphacts.org/units/Nanomolar

>  <target_tax_id>  (16) 
9606

>  <bao_label>  (16) 
cell-based format

>  <published_units>  (16) 
nM

>  <pchembl_value>  (16) 
7.64

>  <published_type>  (16) 
IC50

>  <activity_comment>  (16) 
None

$$$$

     RDKit          

 26 29  0  0  0  0  0  0  0  0999 V2000
    0.0000    0.0000    0.0000 F   0  0  0  0  0  0  0  0  0  0  0  0
    0.0000    0.0000    0.0000 C   0  0  0  0  0  0  0  0  0  0  0  0
    0.0000    0.0000    0.0000 C   0  0  0  0  0  0  0  0  0  0  0  0
    0.0000    0.0000    0.0000 C   0  0  0  0  0  0  0  0  0  0  0  0
    0.0000    0.0000    0.0000 C   0  0  0  0  0  0  0  0  0  0  0  0
    0.0000    0.0000    0.0000 C   0  0  0  0  0  0  0  0  0  0  0  0
    0.0000    0.0000    0.0000 C   0  0  0  0  0  0  0  0  0  0  0  0
    0.0000    0.0000    0.0000 C   0  0  0  0  0  0  0  0  0  0  0  0
    0.0000    0.0000    0.0000 C   0  0  0  0  0  0  0  0  0  0  0  0
    0.0000    0.0000    0.0000 N   0  0  0  0  0  0  0  0  0  0  0  0
    0.0000    0.0000    0.0000 C   0  0  0  0  0  0  0  0  0  0  0  0
    0.0000    0.0000    0.0000 C   0  0  0  0  0  0  0  0  0  0  0  0
    0.0000    0.0000    0.0000 C   0  0  0  0  0  0  0  0  0  0  0  0
    0.0000    0.0000    0.0000 N   0  0  0  0  0  0  0  0  0  0  0  0
    0.0000    0.0000    0.0000 C   0  0  0  0  0  0  0  0  0  0  0  0
    0.0000    0.0000    0.0000 C   0  0  0  0  0  0  0  0  0  0  0  0
    0.0000    0.0000    0.0000 N   0  0  0  0  0  0  0  0  0  0  0  0
    0.0000    0.0000    0.0000 C   0  0  0  0  0  0  0  0  0  0  0  0
    0.0000    0.0000    0.0000 C   0  0  0  0  0  0  0  0  0  0  0  0
    0.0000    0.0000    0.0000 C   0  0  0  0  0  0  0  0  0  0  0  0
    0.0000    0.0000    0.0000 C   0  0  0  0  0  0  0  0  0  0  0  0
    0.0000    0.0000    0.0000 N   0  0  0  0  0  0  0  0  0  0  0  0
    0.0000    0.0000    0.0000 C   0  0  0  0  0  0  0  0  0  0  0  0
    0.0000    0.0000    0.0000 C   0  0  0  0  0  0  0  0  0  0  0  0
    0.0000    0.0000    0.0000 N   0  0  0  0  0  0  0  0  0  0  0  0
    0.0000    0.0000    0.0000 C   0  0  0  0  0  0  0  0  0  0  0  0
  1  2  1  0
  2  3  2  0
  3  4  1  0
  4  5  2  0
  5  6  1  0
  6  7  2  0
  5  8  1  0
  8  9  2  0
  9 10  1  0
 10 11  2  0
 11 12  1  0
 12 13  1  0
 13 14  1  0
 14 15  1  0
 15 16  1  0
 16 17  1  0
 17 18  1  0
 18 19  1  0
 17 20  1  0
 20 21  2  0
 21 22  1  0
 22 23  2  0
 23 24  1  0
 24 25  2  0
 12 26  2  0
  7  2  1  0
 26  8  1  0
 19 14  1  0
 25 20  1  0
M  END
>  <pIC50>  (17) 
6.35

>  <ChEMBL_ID>  (17) 
CHEMBL60957

>  <document_journal>  (17) 
Bioorg. Med. Chem. Lett.

>  <bao_endpoint>  (17) 
BAO_0000190

>  <potential_duplicate>  (17) 
False

>  <uo_units>  (17) 
UO_0000065

>  <canonical_smiles>  (17) 
Fc1ccc(cc1)c2cncc(CN3CCN(CC3)c4cnccn4)c2

>  <parent_molecule_chembl_id>  (17) 
CHEMBL60957

>  <assay_type>  (17) 
B

>  <src_id>  (17) 
1

>  <ligand_efficiency>  (17) 
{u'le': u'0.33', u'bei': u'18.16', u'sei': u'14.06', u'lle': u'4.01'}

>  <standard_flag>  (17) 
True

>  <molecule_chembl_id>  (17) 
CHEMBL60957

>  <target_organism>  (17) 
Homo sapiens

>  <standard_units>  (17) 
nM

>  <record_id>  (17) 
108655

>  <document_chembl_id>  (17) 
CHEMBL1130912

>  <bao_format>  (17) 
BAO_0000219

>  <data_validity_description>  (17) 
None

>  <activity_id>  (17) 
69658

>  <standard_type>  (17) 
IC50

>  <target_chembl_id>  (17) 
CHEMBL217

>  <data_validity_comment>  (17) 
None

>  <published_value>  (17) 
450

>  <document_year>  (17) 
1998

>  <target_pref_name>  (17) 
Dopamine D2 receptor

>  <assay_chembl_id>  (17) 
CHEMBL671073

>  <standard_relation>  (17) 
=

>  <assay_description>  (17) 
Binding affinity to cloned human Dopamine receptor D2 expressed in A9L cells by [3H]spiperone displacement.

>  <published_relation>  (17) 
=

>  <standard_value>  (17) 
450

>  <qudt_units>  (17) 
http://www.openphacts.org/units/Nanomolar

>  <target_tax_id>  (17) 
9606

>  <bao_label>  (17) 
cell-based format

>  <published_units>  (17) 
nM

>  <pchembl_value>  (17) 
6.35

>  <published_type>  (17) 
IC50

>  <activity_comment>  (17) 
None

$$$$

     RDKit          

 24 27  0  0  0  0  0  0  0  0999 V2000
    0.0000    0.0000    0.0000 Cl  0  0  0  0  0  0  0  0  0  0  0  0
    0.0000    0.0000    0.0000 C   0  0  0  0  0  0  0  0  0  0  0  0
    0.0000    0.0000    0.0000 C   0  0  0  0  0  0  0  0  0  0  0  0
    0.0000    0.0000    0.0000 C   0  0  0  0  0  0  0  0  0  0  0  0
    0.0000    0.0000    0.0000 C   0  0  0  0  0  0  0  0  0  0  0  0
    0.0000    0.0000    0.0000 N   0  0  0  0  0  0  0  0  0  0  0  0
    0.0000    0.0000    0.0000 C   0  0  0  0  0  0  0  0  0  0  0  0
    0.0000    0.0000    0.0000 C   0  0  0  0  0  0  0  0  0  0  0  0
    0.0000    0.0000    0.0000 N   0  0  0  0  0  0  0  0  0  0  0  0
    0.0000    0.0000    0.0000 C   0  0  0  0  0  0  0  0  0  0  0  0
    0.0000    0.0000    0.0000 C   0  0  0  0  0  0  0  0  0  0  0  0
    0.0000    0.0000    0.0000 C   0  0  0  0  0  0  0  0  0  0  0  0
    0.0000    0.0000    0.0000 C   0  0  0  0  0  0  0  0  0  0  0  0
    0.0000    0.0000    0.0000 C   0  0  0  0  0  0  0  0  0  0  0  0
    0.0000    0.0000    0.0000 C   0  0  0  0  0  0  0  0  0  0  0  0
    0.0000    0.0000    0.0000 C   0  0  0  0  0  0  0  0  0  0  0  0
    0.0000    0.0000    0.0000 C   0  0  0  0  0  0  0  0  0  0  0  0
    0.0000    0.0000    0.0000 C   0  0  0  0  0  0  0  0  0  0  0  0
    0.0000    0.0000    0.0000 C   0  0  0  0  0  0  0  0  0  0  0  0
    0.0000    0.0000    0.0000 C   0  0  0  0  0  0  0  0  0  0  0  0
    0.0000    0.0000    0.0000 C   0  0  0  0  0  0  0  0  0  0  0  0
    0.0000    0.0000    0.0000 C   0  0  0  0  0  0  0  0  0  0  0  0
    0.0000    0.0000    0.0000 Cl  0  0  0  0  0  0  0  0  0  0  0  0
    0.0000    0.0000    0.0000 C   0  0  0  0  0  0  0  0  0  0  0  0
  1  2  1  0
  2  3  2  0
  3  4  1  0
  4  5  2  0
  5  6  1  0
  6  7  1  0
  7  8  1  0
  8  9  1  0
  9 10  1  0
 10 11  1  0
 11 12  1  0
 12 13  1  0
 13 14  1  0
 14 15  2  0
 15 16  1  0
 16 17  2  0
 17 18  1  0
 18 19  2  0
  9 20  1  0
 20 21  1  0
  5 22  1  0
 22 23  1  0
 22 24  2  0
 24  2  1  0
 21  6  1  0
 13 11  1  0
 19 14  1  0
M  END
>  <pIC50>  (18) 
7.11

>  <ChEMBL_ID>  (18) 
CHEMBL1204116

>  <document_journal>  (18) 
J. Med. Chem.

>  <bao_endpoint>  (18) 
BAO_0000190

>  <potential_duplicate>  (18) 
False

>  <uo_units>  (18) 
UO_0000065

>  <canonical_smiles>  (18) 
Br.Clc1ccc(N2CCN(C[C@H]3C[C@@H]3c4ccccc4)CC2)c(Cl)c1

>  <parent_molecule_chembl_id>  (18) 
CHEMBL302075

>  <assay_type>  (18) 
B

>  <src_id>  (18) 
1

>  <ligand_efficiency>  (18) 
{u'le': u'0.41', u'bei': u'19.89', u'sei': u'110.91', u'lle': u'1.81'}

>  <standard_flag>  (18) 
True

>  <molecule_chembl_id>  (18) 
CHEMBL1204116

>  <target_organism>  (18) 
Homo sapiens

>  <standard_units>  (18) 
nM

>  <record_id>  (18) 
244361

>  <document_chembl_id>  (18) 
CHEMBL1133592

>  <bao_format>  (18) 
BAO_0000357

>  <data_validity_description>  (18) 
None

>  <activity_id>  (18) 
268104

>  <standard_type>  (18) 
IC50

>  <target_chembl_id>  (18) 
CHEMBL217

>  <data_validity_comment>  (18) 
None

>  <published_value>  (18) 
65

>  <document_year>  (18) 
2000

>  <target_pref_name>  (18) 
Dopamine D2 receptor

>  <assay_chembl_id>  (18) 
CHEMBL671074

>  <standard_relation>  (18) 
=

>  <assay_description>  (18) 
Binding affinity to dopamine receptor D2 cloned from human, using [3H]- YM09151 as competitive ligand

>  <published_relation>  (18) 
=

>  <standard_value>  (18) 
65

>  <qudt_units>  (18) 
http://www.openphacts.org/units/Nanomolar

>  <target_tax_id>  (18) 
9606

>  <bao_label>  (18) 
single protein format

>  <published_units>  (18) 
nM

>  <pchembl_value>  (18) 
7.19

>  <published_type>  (18) 
IC50

>  <activity_comment>  (18) 
None

$$$$

     RDKit          

 23 26  0  0  0  0  0  0  0  0999 V2000
    0.0000    0.0000    0.0000 C   0  0  0  0  0  0  0  0  0  0  0  0
    0.0000    0.0000    0.0000 N   0  0  0  0  0  0  0  0  0  0  0  0
    0.0000    0.0000    0.0000 C   0  0  0  0  0  0  0  0  0  0  0  0
    0.0000    0.0000    0.0000 C   0  0  0  0  0  0  0  0  0  0  0  0
    0.0000    0.0000    0.0000 N   0  0  0  0  0  0  0  0  0  0  0  0
    0.0000    0.0000    0.0000 C   0  0  0  0  0  0  0  0  0  0  0  0
    0.0000    0.0000    0.0000 C   0  0  0  0  0  0  0  0  0  0  0  0
    0.0000    0.0000    0.0000 C   0  0  0  0  0  0  0  0  0  0  0  0
    0.0000    0.0000    0.0000 N   0  0  0  0  0  0  0  0  0  0  0  0
    0.0000    0.0000    0.0000 C   0  0  0  0  0  0  0  0  0  0  0  0
    0.0000    0.0000    0.0000 C   0  0  0  0  0  0  0  0  0  0  0  0
    0.0000    0.0000    0.0000 C   0  0  0  0  0  0  0  0  0  0  0  0
    0.0000    0.0000    0.0000 Cl  0  0  0  0  0  0  0  0  0  0  0  0
    0.0000    0.0000    0.0000 C   0  0  0  0  0  0  0  0  0  0  0  0
    0.0000    0.0000    0.0000 C   0  0  0  0  0  0  0  0  0  0  0  0
    0.0000    0.0000    0.0000 C   0  0  0  0  0  0  0  0  0  0  0  0
    0.0000    0.0000    0.0000 N   0  0  0  0  0  0  0  0  0  0  0  0
    0.0000    0.0000    0.0000 C   0  0  0  0  0  0  0  0  0  0  0  0
    0.0000    0.0000    0.0000 C   0  0  0  0  0  0  0  0  0  0  0  0
    0.0000    0.0000    0.0000 C   0  0  0  0  0  0  0  0  0  0  0  0
    0.0000    0.0000    0.0000 C   0  0  0  0  0  0  0  0  0  0  0  0
    0.0000    0.0000    0.0000 C   0  0  0  0  0  0  0  0  0  0  0  0
    0.0000    0.0000    0.0000 C   0  0  0  0  0  0  0  0  0  0  0  0
  1  2  1  0
  2  3  1  0
  3  4  1  0
  4  5  1  0
  5  6  1  0
  6  7  1  0
  5  8  1  0
  8  9  2  0
  9 10  1  0
 10 11  2  0
 11 12  1  0
 12 13  1  0
 12 14  2  0
 14 15  1  0
 15 16  2  0
 16 17  1  0
 17 18  1  0
 18 19  2  0
 19 20  1  0
 20 21  2  0
 21 22  1  0
 22 23  2  0
  7  2  1  0
 23  8  1  0
 16 10  1  0
 23 18  1  0
M  END
>  <pIC50>  (19) 
6.86

>  <ChEMBL_ID>  (19) 
CHEMBL42

>  <document_journal>  (19) 
J. Med. Chem.

>  <bao_endpoint>  (19) 
BAO_0000190

>  <potential_duplicate>  (19) 
False

>  <uo_units>  (19) 
UO_0000065

>  <canonical_smiles>  (19) 
CN1CCN(CC1)C2=Nc3cc(Cl)ccc3Nc4ccccc24

>  <parent_molecule_chembl_id>  (19) 
CHEMBL42

>  <assay_type>  (19) 
B

>  <src_id>  (19) 
1

>  <ligand_efficiency>  (19) 
{u'le': u'0.41', u'bei': u'21.26', u'sei': u'22.5', u'lle': u'3.53'}

>  <standard_flag>  (19) 
True

>  <molecule_chembl_id>  (19) 
CHEMBL42

>  <target_organism>  (19) 
Homo sapiens

>  <standard_units>  (19) 
nM

>  <record_id>  (19) 
244353

>  <document_chembl_id>  (19) 
CHEMBL1133592

>  <bao_format>  (19) 
BAO_0000357

>  <data_validity_description>  (19) 
None

>  <activity_id>  (19) 
270782

>  <standard_type>  (19) 
IC50

>  <target_chembl_id>  (19) 
CHEMBL217

>  <data_validity_comment>  (19) 
None

>  <published_value>  (19) 
113

>  <document_year>  (19) 
2000

>  <target_pref_name>  (19) 
Dopamine D2 receptor

>  <assay_chembl_id>  (19) 
CHEMBL671074

>  <standard_relation>  (19) 
=

>  <assay_description>  (19) 
Binding affinity to dopamine receptor D2 cloned from human, using [3H]- YM09151 as competitive ligand

>  <published_relation>  (19) 
=

>  <standard_value>  (19) 
113

>  <qudt_units>  (19) 
http://www.openphacts.org/units/Nanomolar

>  <target_tax_id>  (19) 
9606

>  <bao_label>  (19) 
single protein format

>  <published_units>  (19) 
nM

>  <pchembl_value>  (19) 
6.95

>  <published_type>  (19) 
IC50

>  <activity_comment>  (19) 
None

$$$$

     RDKit          

 22 25  0  0  0  0  0  0  0  0999 V2000
    0.0000    0.0000    0.0000 C   0  0  0  0  0  0  0  0  0  0  0  0
    0.0000    0.0000    0.0000 C   0  0  0  0  0  0  0  0  0  0  0  0
    0.0000    0.0000    0.0000 C   0  0  0  0  0  0  0  0  0  0  0  0
    0.0000    0.0000    0.0000 C   0  0  0  0  0  0  0  0  0  0  0  0
    0.0000    0.0000    0.0000 C   0  0  0  0  0  0  0  0  0  0  0  0
    0.0000    0.0000    0.0000 C   0  0  0  0  0  0  0  0  0  0  0  0
    0.0000    0.0000    0.0000 C   0  0  0  0  0  0  0  0  0  0  0  0
    0.0000    0.0000    0.0000 C   0  0  0  0  0  0  0  0  0  0  0  0
    0.0000    0.0000    0.0000 C   0  0  0  0  0  0  0  0  0  0  0  0
    0.0000    0.0000    0.0000 C   0  0  0  0  0  0  0  0  0  0  0  0
    0.0000    0.0000    0.0000 N   0  0  0  0  0  0  0  0  0  0  0  0
    0.0000    0.0000    0.0000 C   0  0  0  0  0  0  0  0  0  0  0  0
    0.0000    0.0000    0.0000 C   0  0  0  0  0  0  0  0  0  0  0  0
    0.0000    0.0000    0.0000 N   0  0  0  0  0  0  0  0  0  0  0  0
    0.0000    0.0000    0.0000 C   0  0  0  0  0  0  0  0  0  0  0  0
    0.0000    0.0000    0.0000 C   0  0  0  0  0  0  0  0  0  0  0  0
    0.0000    0.0000    0.0000 C   0  0  0  0  0  0  0  0  0  0  0  0
    0.0000    0.0000    0.0000 C   0  0  0  0  0  0  0  0  0  0  0  0
    0.0000    0.0000    0.0000 C   0  0  0  0  0  0  0  0  0  0  0  0
    0.0000    0.0000    0.0000 C   0  0  0  0  0  0  0  0  0  0  0  0
    0.0000    0.0000    0.0000 C   0  0  0  0  0  0  0  0  0  0  0  0
    0.0000    0.0000    0.0000 N   0  0  0  0  0  0  0  0  0  0  0  0
  1  2  1  0
  2  3  1  0
  3  4  1  0
  4  5  1  0
  5  6  2  0
  6  7  1  0
  7  8  2  0
  8  9  1  0
  9 10  2  0
  1 11  1  0
 11 12  1  0
 12 13  1  0
 13 14  1  0
 14 15  1  0
 15 16  1  0
 14 17  1  0
 17 18  2  0
 18 19  1  0
 19 20  2  0
 20 21  1  0
 21 22  2  0
  4  2  1  0
 10  5  1  0
 16 11  1  0
 22 17  1  0
M  END
>  <pIC50>  (20) 
6.58

>  <ChEMBL_ID>  (20) 
CHEMBL1203260

>  <document_journal>  (20) 
J. Med. Chem.

>  <bao_endpoint>  (20) 
BAO_0000190

>  <potential_duplicate>  (20) 
False

>  <uo_units>  (20) 
UO_0000065

>  <canonical_smiles>  (20) 
Cl.C([C@H]1C[C@@H]1c2ccccc2)N3CCN(CC3)c4ccccn4

>  <parent_molecule_chembl_id>  (20) 
CHEMBL126318

>  <assay_type>  (20) 
B

>  <src_id>  (20) 
1

>  <ligand_efficiency>  (20) 
{u'le': u'0.41', u'bei': u'22.43', u'sei': u'33.97', u'lle': u'3.14'}

>  <standard_flag>  (20) 
True

>  <molecule_chembl_id>  (20) 
CHEMBL1203260

>  <target_organism>  (20) 
Homo sapiens

>  <standard_units>  (20) 
nM

>  <record_id>  (20) 
244347

>  <document_chembl_id>  (20) 
CHEMBL1133592

>  <bao_format>  (20) 
BAO_0000357

>  <data_validity_description>  (20) 
None

>  <activity_id>  (20) 
272116

>  <standard_type>  (20) 
IC50

>  <target_chembl_id>  (20) 
CHEMBL217

>  <data_validity_comment>  (20) 
None

>  <published_value>  (20) 
263

>  <document_year>  (20) 
2000

>  <target_pref_name>  (20) 
Dopamine D2 receptor

>  <assay_chembl_id>  (20) 
CHEMBL671074

>  <standard_relation>  (20) 
=

>  <assay_description>  (20) 
Binding affinity to dopamine receptor D2 cloned from human, using [3H]- YM09151 as competitive ligand

>  <published_relation>  (20) 
=

>  <standard_value>  (20) 
263

>  <qudt_units>  (20) 
http://www.openphacts.org/units/Nanomolar

>  <target_tax_id>  (20) 
9606

>  <bao_label>  (20) 
single protein format

>  <published_units>  (20) 
nM

>  <pchembl_value>  (20) 
6.58

>  <published_type>  (20) 
IC50

>  <activity_comment>  (20) 
None

$$$$

     RDKit          

 24 27  0  0  0  0  0  0  0  0999 V2000
    0.0000    0.0000    0.0000 F   0  0  0  0  0  0  0  0  0  0  0  0
    0.0000    0.0000    0.0000 C   0  0  0  0  0  0  0  0  0  0  0  0
    0.0000    0.0000    0.0000 C   0  0  0  0  0  0  0  0  0  0  0  0
    0.0000    0.0000    0.0000 C   0  0  0  0  0  0  0  0  0  0  0  0
    0.0000    0.0000    0.0000 C   0  0  0  0  0  0  0  0  0  0  0  0
    0.0000    0.0000    0.0000 C   0  0  0  0  0  0  0  0  0  0  0  0
    0.0000    0.0000    0.0000 C   0  0  0  0  0  0  0  0  0  0  0  0
    0.0000    0.0000    0.0000 C   0  0  0  0  0  0  0  0  0  0  0  0
    0.0000    0.0000    0.0000 C   0  0  0  0  0  0  0  0  0  0  0  0
    0.0000    0.0000    0.0000 C   0  0  0  0  0  0  0  0  0  0  0  0
    0.0000    0.0000    0.0000 C   0  0  0  0  0  0  0  0  0  0  0  0
    0.0000    0.0000    0.0000 N   0  0  0  0  0  0  0  0  0  0  0  0
    0.0000    0.0000    0.0000 C   0  0  0  0  0  0  0  0  0  0  0  0
    0.0000    0.0000    0.0000 C   0  0  0  0  0  0  0  0  0  0  0  0
    0.0000    0.0000    0.0000 N   0  0  0  0  0  0  0  0  0  0  0  0
    0.0000    0.0000    0.0000 C   0  0  0  0  0  0  0  0  0  0  0  0
    0.0000    0.0000    0.0000 C   0  0  0  0  0  0  0  0  0  0  0  0
    0.0000    0.0000    0.0000 C   0  0  0  0  0  0  0  0  0  0  0  0
    0.0000    0.0000    0.0000 C   0  0  0  0  0  0  0  0  0  0  0  0
    0.0000    0.0000    0.0000 C   0  0  0  0  0  0  0  0  0  0  0  0
    0.0000    0.0000    0.0000 C   0  0  0  0  0  0  0  0  0  0  0  0
    0.0000    0.0000    0.0000 Cl  0  0  0  0  0  0  0  0  0  0  0  0
    0.0000    0.0000    0.0000 C   0  0  0  0  0  0  0  0  0  0  0  0
    0.0000    0.0000    0.0000 C   0  0  0  0  0  0  0  0  0  0  0  0
  1  2  1  0
  2  3  2  0
  3  4  1  0
  4  5  2  0
  5  6  1  0
  6  7  2  0
  5  8  1  0
  8  9  1  0
  9 10  1  0
 10 11  1  0
 11 12  1  0
 12 13  1  0
 13 14  1  0
 14 15  1  0
 15 16  1  0
 16 17  1  0
 15 18  1  0
 18 19  2  0
 19 20  1  0
 20 21  2  0
 21 22  1  0
 21 23  1  0
 23 24  2  0
  7  2  1  0
 10  8  1  0
 17 12  1  0
 24 18  1  0
M  END
>  <pIC50>  (21) 
6.7

>  <ChEMBL_ID>  (21) 
CHEMBL1202222

>  <document_journal>  (21) 
J. Med. Chem.

>  <bao_endpoint>  (21) 
BAO_0000190

>  <potential_duplicate>  (21) 
False

>  <uo_units>  (21) 
UO_0000065

>  <canonical_smiles>  (21) 
Br.Fc1ccc(cc1)[C@H]2C[C@@H]2CN3CCN(CC3)c4ccc(Cl)cc4

>  <parent_molecule_chembl_id>  (21) 
CHEMBL126792

>  <assay_type>  (21) 
B

>  <src_id>  (21) 
1

>  <ligand_efficiency>  (21) 
{u'le': u'0.38', u'bei': u'19.41', u'sei': u'103.31', u'lle': u'1.77'}

>  <standard_flag>  (21) 
True

>  <molecule_chembl_id>  (21) 
CHEMBL1202222

>  <target_organism>  (21) 
Homo sapiens

>  <standard_units>  (21) 
nM

>  <record_id>  (21) 
244339

>  <document_chembl_id>  (21) 
CHEMBL1133592

>  <bao_format>  (21) 
BAO_0000357

>  <data_validity_description>  (21) 
None

>  <activity_id>  (21) 
272122

>  <standard_type>  (21) 
IC50

>  <target_chembl_id>  (21) 
CHEMBL217

>  <data_validity_comment>  (21) 
None

>  <published_value>  (21) 
202

>  <document_year>  (21) 
2000

>  <target_pref_name>  (21) 
Dopamine D2 receptor

>  <assay_chembl_id>  (21) 
CHEMBL671074

>  <standard_relation>  (21) 
=

>  <assay_description>  (21) 
Binding affinity to dopamine receptor D2 cloned from human, using [3H]- YM09151 as competitive ligand

>  <published_relation>  (21) 
=

>  <standard_value>  (21) 
202

>  <qudt_units>  (21) 
http://www.openphacts.org/units/Nanomolar

>  <target_tax_id>  (21) 
9606

>  <bao_label>  (21) 
single protein format

>  <published_units>  (21) 
nM

>  <pchembl_value>  (21) 
6.7

>  <published_type>  (21) 
IC50

>  <activity_comment>  (21) 
None

$$$$

     RDKit          

 24 27  0  0  0  0  0  0  0  0999 V2000
    0.0000    0.0000    0.0000 C   0  0  0  0  0  0  0  0  0  0  0  0
    0.0000    0.0000    0.0000 C   0  0  0  0  0  0  0  0  0  0  0  0
    0.0000    0.0000    0.0000 C   0  0  0  0  0  0  0  0  0  0  0  0
    0.0000    0.0000    0.0000 C   0  0  0  0  0  0  0  0  0  0  0  0
    0.0000    0.0000    0.0000 C   0  0  0  0  0  0  0  0  0  0  0  0
    0.0000    0.0000    0.0000 N   0  0  0  0  0  0  0  0  0  0  0  0
    0.0000    0.0000    0.0000 C   0  0  0  0  0  0  0  0  0  0  0  0
    0.0000    0.0000    0.0000 C   0  0  0  0  0  0  0  0  0  0  0  0
    0.0000    0.0000    0.0000 N   0  0  0  0  0  0  0  0  0  0  0  0
    0.0000    0.0000    0.0000 C   0  0  0  0  0  0  0  0  0  0  0  0
    0.0000    0.0000    0.0000 C   0  0  0  0  0  0  0  0  0  0  0  0
    0.0000    0.0000    0.0000 C   0  0  0  0  0  0  0  0  0  0  0  0
    0.0000    0.0000    0.0000 C   0  0  0  0  0  0  0  0  0  0  0  0
    0.0000    0.0000    0.0000 C   0  0  0  0  0  0  0  0  0  0  0  0
    0.0000    0.0000    0.0000 C   0  0  0  0  0  0  0  0  0  0  0  0
    0.0000    0.0000    0.0000 C   0  0  0  0  0  0  0  0  0  0  0  0
    0.0000    0.0000    0.0000 C   0  0  0  0  0  0  0  0  0  0  0  0
    0.0000    0.0000    0.0000 C   0  0  0  0  0  0  0  0  0  0  0  0
    0.0000    0.0000    0.0000 C   0  0  0  0  0  0  0  0  0  0  0  0
    0.0000    0.0000    0.0000 C   0  0  0  0  0  0  0  0  0  0  0  0
    0.0000    0.0000    0.0000 C   0  0  0  0  0  0  0  0  0  0  0  0
    0.0000    0.0000    0.0000 C   0  0  0  0  0  0  0  0  0  0  0  0
    0.0000    0.0000    0.0000 C   0  0  0  0  0  0  0  0  0  0  0  0
    0.0000    0.0000    0.0000 C   0  0  0  0  0  0  0  0  0  0  0  0
  1  2  1  0
  2  3  2  0
  3  4  1  0
  4  5  2  0
  5  6  1  0
  6  7  1  0
  7  8  1  0
  8  9  1  0
  9 10  1  0
 10 11  1  0
 11 12  1  0
 12 13  1  0
 13 14  1  0
 14 15  2  0
 15 16  1  0
 16 17  2  0
 17 18  1  0
 18 19  2  0
  9 20  1  0
 20 21  1  0
  5 22  1  0
 22 23  1  0
 22 24  2  0
 24  2  1  0
 21  6  1  0
 13 11  1  0
 19 14  1  0
M  END
>  <pIC50>  (22) 
7.22

>  <ChEMBL_ID>  (22) 
CHEMBL2092961

>  <document_journal>  (22) 
J. Med. Chem.

>  <bao_endpoint>  (22) 
BAO_0000190

>  <potential_duplicate>  (22) 
False

>  <uo_units>  (22) 
UO_0000065

>  <canonical_smiles>  (22) 
Br.Cc1ccc(N2CCN(CC3CC3c4ccccc4)CC2)c(C)c1

>  <parent_molecule_chembl_id>  (22) 
CHEMBL2109988

>  <assay_type>  (22) 
B

>  <src_id>  (22) 
1

>  <ligand_efficiency>  (22) 
{u'le': u'0.41', u'bei': u'22.54', u'sei': u'111.45', u'lle': u'2.19'}

>  <standard_flag>  (22) 
True

>  <molecule_chembl_id>  (22) 
CHEMBL2092961

>  <target_organism>  (22) 
Homo sapiens

>  <standard_units>  (22) 
nM

>  <record_id>  (22) 
244352

>  <document_chembl_id>  (22) 
CHEMBL1133592

>  <bao_format>  (22) 
BAO_0000357

>  <data_validity_description>  (22) 
None

>  <activity_id>  (22) 
273255

>  <standard_type>  (22) 
IC50

>  <target_chembl_id>  (22) 
CHEMBL217

>  <data_validity_comment>  (22) 
None

>  <published_value>  (22) 
60

>  <document_year>  (22) 
2000

>  <target_pref_name>  (22) 
Dopamine D2 receptor

>  <assay_chembl_id>  (22) 
CHEMBL671074

>  <standard_relation>  (22) 
=

>  <assay_description>  (22) 
Binding affinity to dopamine receptor D2 cloned from human, using [3H]- YM09151 as competitive ligand

>  <published_relation>  (22) 
=

>  <standard_value>  (22) 
60

>  <qudt_units>  (22) 
http://www.openphacts.org/units/Nanomolar

>  <target_tax_id>  (22) 
9606

>  <bao_label>  (22) 
single protein format

>  <published_units>  (22) 
nM

>  <pchembl_value>  (22) 
7.22

>  <published_type>  (22) 
IC50

>  <activity_comment>  (22) 
None

$$$$

     RDKit          

 25 28  0  0  0  0  0  0  0  0999 V2000
    0.0000    0.0000    0.0000 C   0  0  0  0  0  0  0  0  0  0  0  0
    0.0000    0.0000    0.0000 O   0  0  0  0  0  0  0  0  0  0  0  0
    0.0000    0.0000    0.0000 C   0  0  0  0  0  0  0  0  0  0  0  0
    0.0000    0.0000    0.0000 C   0  0  0  0  0  0  0  0  0  0  0  0
    0.0000    0.0000    0.0000 C   0  0  0  0  0  0  0  0  0  0  0  0
    0.0000    0.0000    0.0000 Cl  0  0  0  0  0  0  0  0  0  0  0  0
    0.0000    0.0000    0.0000 C   0  0  0  0  0  0  0  0  0  0  0  0
    0.0000    0.0000    0.0000 C   0  0  0  0  0  0  0  0  0  0  0  0
    0.0000    0.0000    0.0000 C   0  0  0  0  0  0  0  0  0  0  0  0
    0.0000    0.0000    0.0000 N   0  0  0  0  0  0  0  0  0  0  0  0
    0.0000    0.0000    0.0000 C   0  0  0  0  0  0  0  0  0  0  0  0
    0.0000    0.0000    0.0000 C   0  0  0  0  0  0  0  0  0  0  0  0
    0.0000    0.0000    0.0000 N   0  0  0  0  0  0  0  0  0  0  0  0
    0.0000    0.0000    0.0000 C   0  0  0  0  0  0  0  0  0  0  0  0
    0.0000    0.0000    0.0000 C   0  0  0  0  0  0  0  0  0  0  0  0
    0.0000    0.0000    0.0000 C   0  0  0  0  0  0  0  0  0  0  0  0
    0.0000    0.0000    0.0000 C   0  0  0  0  0  0  0  0  0  0  0  0
    0.0000    0.0000    0.0000 C   0  0  0  0  0  0  0  0  0  0  0  0
    0.0000    0.0000    0.0000 C   0  0  0  0  0  0  0  0  0  0  0  0
    0.0000    0.0000    0.0000 C   0  0  0  0  0  0  0  0  0  0  0  0
    0.0000    0.0000    0.0000 C   0  0  0  0  0  0  0  0  0  0  0  0
    0.0000    0.0000    0.0000 C   0  0  0  0  0  0  0  0  0  0  0  0
    0.0000    0.0000    0.0000 C   0  0  0  0  0  0  0  0  0  0  0  0
    0.0000    0.0000    0.0000 C   0  0  0  0  0  0  0  0  0  0  0  0
    0.0000    0.0000    0.0000 C   0  0  0  0  0  0  0  0  0  0  0  0
  1  2  1  0
  2  3  1  0
  3  4  2  0
  4  5  1  0
  5  6  1  0
  5  7  2  0
  7  8  1  0
  8  9  2  0
  9 10  1  0
 10 11  1  0
 11 12  1  0
 12 13  1  0
 13 14  1  0
 14 15  1  0
 15 16  1  0
 16 17  1  0
 17 18  1  0
 18 19  2  0
 19 20  1  0
 20 21  2  0
 21 22  1  0
 22 23  2  0
 13 24  1  0
 24 25  1  0
  9  3  1  0
 25 10  1  0
 17 15  1  0
 23 18  1  0
M  END
>  <pIC50>  (23) 
7.77

>  <ChEMBL_ID>  (23) 
CHEMBL1202211

>  <document_journal>  (23) 
J. Med. Chem.

>  <bao_endpoint>  (23) 
BAO_0000190

>  <potential_duplicate>  (23) 
False

>  <uo_units>  (23) 
UO_0000065

>  <canonical_smiles>  (23) 
Br.COc1cc(Cl)ccc1N2CCN(C[C@H]3C[C@@H]3c4ccccc4)CC2

>  <parent_molecule_chembl_id>  (23) 
CHEMBL126032

>  <assay_type>  (23) 
B

>  <src_id>  (23) 
1

>  <ligand_efficiency>  (23) 
{u'le': u'0.42', u'bei': u'21.77', u'sei': u'49.46', u'lle': u'3.07'}

>  <standard_flag>  (23) 
True

>  <molecule_chembl_id>  (23) 
CHEMBL1202211

>  <target_organism>  (23) 
Homo sapiens

>  <standard_units>  (23) 
nM

>  <record_id>  (23) 
244358

>  <document_chembl_id>  (23) 
CHEMBL1133592

>  <bao_format>  (23) 
BAO_0000357

>  <data_validity_description>  (23) 
None

>  <activity_id>  (23) 
274429

>  <standard_type>  (23) 
IC50

>  <target_chembl_id>  (23) 
CHEMBL217

>  <data_validity_comment>  (23) 
None

>  <published_value>  (23) 
17

>  <document_year>  (23) 
2000

>  <target_pref_name>  (23) 
Dopamine D2 receptor

>  <assay_chembl_id>  (23) 
CHEMBL671074

>  <standard_relation>  (23) 
=

>  <assay_description>  (23) 
Binding affinity to dopamine receptor D2 cloned from human, using [3H]- YM09151 as competitive ligand

>  <published_relation>  (23) 
=

>  <standard_value>  (23) 
17

>  <qudt_units>  (23) 
http://www.openphacts.org/units/Nanomolar

>  <target_tax_id>  (23) 
9606

>  <bao_label>  (23) 
single protein format

>  <published_units>  (23) 
nM

>  <pchembl_value>  (23) 
7.77

>  <published_type>  (23) 
IC50

>  <activity_comment>  (23) 
None

$$$$

     RDKit          

 24 27  0  0  0  0  0  0  0  0999 V2000
    0.0000    0.0000    0.0000 Cl  0  0  0  0  0  0  0  0  0  0  0  0
    0.0000    0.0000    0.0000 C   0  0  0  0  0  0  0  0  0  0  0  0
    0.0000    0.0000    0.0000 C   0  0  0  0  0  0  0  0  0  0  0  0
    0.0000    0.0000    0.0000 C   0  0  0  0  0  0  0  0  0  0  0  0
    0.0000    0.0000    0.0000 C   0  0  0  0  0  0  0  0  0  0  0  0
    0.0000    0.0000    0.0000 C   0  0  0  0  0  0  0  0  0  0  0  0
    0.0000    0.0000    0.0000 N   0  0  0  0  0  0  0  0  0  0  0  0
    0.0000    0.0000    0.0000 C   0  0  0  0  0  0  0  0  0  0  0  0
    0.0000    0.0000    0.0000 C   0  0  0  0  0  0  0  0  0  0  0  0
    0.0000    0.0000    0.0000 N   0  0  0  0  0  0  0  0  0  0  0  0
    0.0000    0.0000    0.0000 C   0  0  0  0  0  0  0  0  0  0  0  0
    0.0000    0.0000    0.0000 C   0  0  0  0  0  0  0  0  0  0  0  0
    0.0000    0.0000    0.0000 C   0  0  0  0  0  0  0  0  0  0  0  0
    0.0000    0.0000    0.0000 C   0  0  0  0  0  0  0  0  0  0  0  0
    0.0000    0.0000    0.0000 C   0  0  0  0  0  0  0  0  0  0  0  0
    0.0000    0.0000    0.0000 C   0  0  0  0  0  0  0  0  0  0  0  0
    0.0000    0.0000    0.0000 C   0  0  0  0  0  0  0  0  0  0  0  0
    0.0000    0.0000    0.0000 C   0  0  0  0  0  0  0  0  0  0  0  0
    0.0000    0.0000    0.0000 C   0  0  0  0  0  0  0  0  0  0  0  0
    0.0000    0.0000    0.0000 C   0  0  0  0  0  0  0  0  0  0  0  0
    0.0000    0.0000    0.0000 C   0  0  0  0  0  0  0  0  0  0  0  0
    0.0000    0.0000    0.0000 C   0  0  0  0  0  0  0  0  0  0  0  0
    0.0000    0.0000    0.0000 C   0  0  0  0  0  0  0  0  0  0  0  0
    0.0000    0.0000    0.0000 Cl  0  0  0  0  0  0  0  0  0  0  0  0
  1  2  1  0
  2  3  2  0
  3  4  1  0
  4  5  2  0
  5  6  1  0
  6  7  1  0
  7  8  1  0
  8  9  1  0
  9 10  1  0
 10 11  1  0
 11 12  1  0
 12 13  1  0
 13 14  1  0
 14 15  1  0
 15 16  2  0
 16 17  1  0
 17 18  2  0
 18 19  1  0
 19 20  2  0
 10 21  1  0
 21 22  1  0
  6 23  2  0
 23 24  1  0
 23  2  1  0
 22  7  1  0
 14 12  1  0
 20 15  1  0
M  END
>  <pIC50>  (24) 
8.7

>  <ChEMBL_ID>  (24) 
CHEMBL1202213

>  <document_journal>  (24) 
J. Med. Chem.

>  <bao_endpoint>  (24) 
BAO_0000190

>  <potential_duplicate>  (24) 
False

>  <uo_units>  (24) 
UO_0000065

>  <canonical_smiles>  (24) 
Br.Clc1cccc(N2CCN(C[C@H]3C[C@@H]3c4ccccc4)CC2)c1Cl

>  <parent_molecule_chembl_id>  (24) 
CHEMBL341310

>  <assay_type>  (24) 
B

>  <src_id>  (24) 
1

>  <ligand_efficiency>  (24) 
{u'le': u'0.5', u'bei': u'24.08', u'sei': u'134.24', u'lle': u'3.32'}

>  <standard_flag>  (24) 
True

>  <molecule_chembl_id>  (24) 
CHEMBL1202213

>  <target_organism>  (24) 
Homo sapiens

>  <standard_units>  (24) 
nM

>  <record_id>  (24) 
244363

>  <document_chembl_id>  (24) 
CHEMBL1133592

>  <bao_format>  (24) 
BAO_0000357

>  <data_validity_description>  (24) 
None

>  <activity_id>  (24) 
277005

>  <standard_type>  (24) 
IC50

>  <target_chembl_id>  (24) 
CHEMBL217

>  <data_validity_comment>  (24) 
None

>  <published_value>  (24) 
2

>  <document_year>  (24) 
2000

>  <target_pref_name>  (24) 
Dopamine D2 receptor

>  <assay_chembl_id>  (24) 
CHEMBL671074

>  <standard_relation>  (24) 
=

>  <assay_description>  (24) 
Binding affinity to dopamine receptor D2 cloned from human, using [3H]- YM09151 as competitive ligand

>  <published_relation>  (24) 
=

>  <standard_value>  (24) 
2

>  <qudt_units>  (24) 
http://www.openphacts.org/units/Nanomolar

>  <target_tax_id>  (24) 
9606

>  <bao_label>  (24) 
single protein format

>  <published_units>  (24) 
nM

>  <pchembl_value>  (24) 
8.7

>  <published_type>  (24) 
IC50

>  <activity_comment>  (24) 
None

$$$$

     RDKit          

 24 27  0  0  0  0  0  0  0  0999 V2000
    0.0000    0.0000    0.0000 Cl  0  0  0  0  0  0  0  0  0  0  0  0
    0.0000    0.0000    0.0000 C   0  0  0  0  0  0  0  0  0  0  0  0
    0.0000    0.0000    0.0000 C   0  0  0  0  0  0  0  0  0  0  0  0
    0.0000    0.0000    0.0000 C   0  0  0  0  0  0  0  0  0  0  0  0
    0.0000    0.0000    0.0000 C   0  0  0  0  0  0  0  0  0  0  0  0
    0.0000    0.0000    0.0000 N   0  0  0  0  0  0  0  0  0  0  0  0
    0.0000    0.0000    0.0000 C   0  0  0  0  0  0  0  0  0  0  0  0
    0.0000    0.0000    0.0000 C   0  0  0  0  0  0  0  0  0  0  0  0
    0.0000    0.0000    0.0000 N   0  0  0  0  0  0  0  0  0  0  0  0
    0.0000    0.0000    0.0000 C   0  0  0  0  0  0  0  0  0  0  0  0
    0.0000    0.0000    0.0000 C   0  0  0  0  0  0  0  0  0  0  0  0
    0.0000    0.0000    0.0000 C   0  0  0  0  0  0  0  0  0  0  0  0
    0.0000    0.0000    0.0000 C   0  0  0  0  0  0  0  0  0  0  0  0
    0.0000    0.0000    0.0000 C   0  0  0  0  0  0  0  0  0  0  0  0
    0.0000    0.0000    0.0000 C   0  0  0  0  0  0  0  0  0  0  0  0
    0.0000    0.0000    0.0000 C   0  0  0  0  0  0  0  0  0  0  0  0
    0.0000    0.0000    0.0000 C   0  0  0  0  0  0  0  0  0  0  0  0
    0.0000    0.0000    0.0000 C   0  0  0  0  0  0  0  0  0  0  0  0
    0.0000    0.0000    0.0000 C   0  0  0  0  0  0  0  0  0  0  0  0
    0.0000    0.0000    0.0000 C   0  0  0  0  0  0  0  0  0  0  0  0
    0.0000    0.0000    0.0000 C   0  0  0  0  0  0  0  0  0  0  0  0
    0.0000    0.0000    0.0000 C   0  0  0  0  0  0  0  0  0  0  0  0
    0.0000    0.0000    0.0000 Cl  0  0  0  0  0  0  0  0  0  0  0  0
    0.0000    0.0000    0.0000 C   0  0  0  0  0  0  0  0  0  0  0  0
  1  2  1  0
  2  3  2  0
  3  4  1  0
  4  5  2  0
  5  6  1  0
  6  7  1  0
  7  8  1  0
  8  9  1  0
  9 10  1  0
 10 11  1  0
 11 12  1  0
 12 13  1  0
 13 14  1  0
 14 15  2  0
 15 16  1  0
 16 17  2  0
 17 18  1  0
 18 19  2  0
  9 20  1  0
 20 21  1  0
  5 22  1  0
 22 23  1  0
 22 24  2  0
 24  2  1  0
 21  6  1  0
 13 11  1  0
 19 14  1  0
M  END
>  <pIC50>  (25) 
7.19

>  <ChEMBL_ID>  (25) 
CHEMBL125455

>  <document_journal>  (25) 
J. Med. Chem.

>  <bao_endpoint>  (25) 
BAO_0000190

>  <potential_duplicate>  (25) 
False

>  <uo_units>  (25) 
UO_0000065

>  <canonical_smiles>  (25) 
Clc1ccc(N2CCN(C[C@@H]3C[C@H]3c4ccccc4)CC2)c(Cl)c1

>  <parent_molecule_chembl_id>  (25) 
CHEMBL125455

>  <assay_type>  (25) 
B

>  <src_id>  (25) 
1

>  <ligand_efficiency>  (25) 
{u'le': u'0.41', u'bei': u'19.91', u'sei': u'111.02', u'lle': u'1.81'}

>  <standard_flag>  (25) 
True

>  <molecule_chembl_id>  (25) 
CHEMBL125455

>  <target_organism>  (25) 
Homo sapiens

>  <standard_units>  (25) 
nM

>  <record_id>  (25) 
244360

>  <document_chembl_id>  (25) 
CHEMBL1133592

>  <bao_format>  (25) 
BAO_0000357

>  <data_validity_description>  (25) 
None

>  <activity_id>  (25) 
277008

>  <standard_type>  (25) 
IC50

>  <target_chembl_id>  (25) 
CHEMBL217

>  <data_validity_comment>  (25) 
None

>  <published_value>  (25) 
64

>  <document_year>  (25) 
2000

>  <target_pref_name>  (25) 
Dopamine D2 receptor

>  <assay_chembl_id>  (25) 
CHEMBL671074

>  <standard_relation>  (25) 
=

>  <assay_description>  (25) 
Binding affinity to dopamine receptor D2 cloned from human, using [3H]- YM09151 as competitive ligand

>  <published_relation>  (25) 
=

>  <standard_value>  (25) 
64

>  <qudt_units>  (25) 
http://www.openphacts.org/units/Nanomolar

>  <target_tax_id>  (25) 
9606

>  <bao_label>  (25) 
single protein format

>  <published_units>  (25) 
nM

>  <pchembl_value>  (25) 
7.19

>  <published_type>  (25) 
IC50

>  <activity_comment>  (25) 
None

$$$$

     RDKit          

 24 27  0  0  0  0  0  0  0  0999 V2000
    0.0000    0.0000    0.0000 C   0  0  0  0  0  0  0  0  0  0  0  0
    0.0000    0.0000    0.0000 O   0  0  0  0  0  0  0  0  0  0  0  0
    0.0000    0.0000    0.0000 C   0  0  0  0  0  0  0  0  0  0  0  0
    0.0000    0.0000    0.0000 C   0  0  0  0  0  0  0  0  0  0  0  0
    0.0000    0.0000    0.0000 C   0  0  0  0  0  0  0  0  0  0  0  0
    0.0000    0.0000    0.0000 C   0  0  0  0  0  0  0  0  0  0  0  0
    0.0000    0.0000    0.0000 C   0  0  0  0  0  0  0  0  0  0  0  0
    0.0000    0.0000    0.0000 C   0  0  0  0  0  0  0  0  0  0  0  0
    0.0000    0.0000    0.0000 N   0  0  0  0  0  0  0  0  0  0  0  0
    0.0000    0.0000    0.0000 C   0  0  0  0  0  0  0  0  0  0  0  0
    0.0000    0.0000    0.0000 C   0  0  0  0  0  0  0  0  0  0  0  0
    0.0000    0.0000    0.0000 N   0  0  0  0  0  0  0  0  0  0  0  0
    0.0000    0.0000    0.0000 C   0  0  0  0  0  0  0  0  0  0  0  0
    0.0000    0.0000    0.0000 C   0  0  0  0  0  0  0  0  0  0  0  0
    0.0000    0.0000    0.0000 C   0  0  0  0  0  0  0  0  0  0  0  0
    0.0000    0.0000    0.0000 C   0  0  0  0  0  0  0  0  0  0  0  0
    0.0000    0.0000    0.0000 C   0  0  0  0  0  0  0  0  0  0  0  0
    0.0000    0.0000    0.0000 C   0  0  0  0  0  0  0  0  0  0  0  0
    0.0000    0.0000    0.0000 C   0  0  0  0  0  0  0  0  0  0  0  0
    0.0000    0.0000    0.0000 C   0  0  0  0  0  0  0  0  0  0  0  0
    0.0000    0.0000    0.0000 C   0  0  0  0  0  0  0  0  0  0  0  0
    0.0000    0.0000    0.0000 C   0  0  0  0  0  0  0  0  0  0  0  0
    0.0000    0.0000    0.0000 C   0  0  0  0  0  0  0  0  0  0  0  0
    0.0000    0.0000    0.0000 C   0  0  0  0  0  0  0  0  0  0  0  0
  1  2  1  0
  2  3  1  0
  3  4  2  0
  4  5  1  0
  5  6  2  0
  6  7  1  0
  7  8  2  0
  8  9  1  0
  9 10  1  0
 10 11  1  0
 11 12  1  0
 12 13  1  0
 13 14  1  0
 14 15  1  0
 15 16  1  0
 16 17  1  0
 17 18  2  0
 18 19  1  0
 19 20  2  0
 20 21  1  0
 21 22  2  0
 12 23  1  0
 23 24  1  0
  8  3  1  0
 24  9  1  0
 16 14  1  0
 22 17  1  0
M  END
>  <pIC50>  (26) 
8.3

>  <ChEMBL_ID>  (26) 
CHEMBL1202216

>  <document_journal>  (26) 
J. Med. Chem.

>  <bao_endpoint>  (26) 
BAO_0000190

>  <potential_duplicate>  (26) 
False

>  <uo_units>  (26) 
UO_0000065

>  <canonical_smiles>  (26) 
Br.COc1ccccc1N2CCN(C[C@H]3C[C@@H]3c4ccccc4)CC2

>  <parent_molecule_chembl_id>  (26) 
CHEMBL126509

>  <assay_type>  (26) 
B

>  <src_id>  (26) 
1

>  <ligand_efficiency>  (26) 
{u'le': u'0.47', u'bei': u'25.74', u'sei': u'52.84', u'lle': u'4.26'}

>  <standard_flag>  (26) 
True

>  <molecule_chembl_id>  (26) 
CHEMBL1202216

>  <target_organism>  (26) 
Homo sapiens

>  <standard_units>  (26) 
nM

>  <record_id>  (26) 
244332

>  <document_chembl_id>  (26) 
CHEMBL1133592

>  <bao_format>  (26) 
BAO_0000357

>  <data_validity_description>  (26) 
None

>  <activity_id>  (26) 
278120

>  <standard_type>  (26) 
IC50

>  <target_chembl_id>  (26) 
CHEMBL217

>  <data_validity_comment>  (26) 
None

>  <published_value>  (26) 
5

>  <document_year>  (26) 
2000

>  <target_pref_name>  (26) 
Dopamine D2 receptor

>  <assay_chembl_id>  (26) 
CHEMBL671074

>  <standard_relation>  (26) 
=

>  <assay_description>  (26) 
Binding affinity to dopamine receptor D2 cloned from human, using [3H]- YM09151 as competitive ligand

>  <published_relation>  (26) 
=

>  <standard_value>  (26) 
5

>  <qudt_units>  (26) 
http://www.openphacts.org/units/Nanomolar

>  <target_tax_id>  (26) 
9606

>  <bao_label>  (26) 
single protein format

>  <published_units>  (26) 
nM

>  <pchembl_value>  (26) 
8.3

>  <published_type>  (26) 
IC50

>  <activity_comment>  (26) 
None

$$$$

     RDKit          

 24 27  0  0  0  0  0  0  0  0999 V2000
    0.0000    0.0000    0.0000 C   0  0  0  0  0  0  0  0  0  0  0  0
    0.0000    0.0000    0.0000 O   0  0  0  0  0  0  0  0  0  0  0  0
    0.0000    0.0000    0.0000 C   0  0  0  0  0  0  0  0  0  0  0  0
    0.0000    0.0000    0.0000 C   0  0  0  0  0  0  0  0  0  0  0  0
    0.0000    0.0000    0.0000 C   0  0  0  0  0  0  0  0  0  0  0  0
    0.0000    0.0000    0.0000 C   0  0  0  0  0  0  0  0  0  0  0  0
    0.0000    0.0000    0.0000 C   0  0  0  0  0  0  0  0  0  0  0  0
    0.0000    0.0000    0.0000 C   0  0  0  0  0  0  0  0  0  0  0  0
    0.0000    0.0000    0.0000 N   0  0  0  0  0  0  0  0  0  0  0  0
    0.0000    0.0000    0.0000 C   0  0  0  0  0  0  0  0  0  0  0  0
    0.0000    0.0000    0.0000 C   0  0  0  0  0  0  0  0  0  0  0  0
    0.0000    0.0000    0.0000 N   0  0  0  0  0  0  0  0  0  0  0  0
    0.0000    0.0000    0.0000 C   0  0  0  0  0  0  0  0  0  0  0  0
    0.0000    0.0000    0.0000 C   0  0  0  0  0  0  0  0  0  0  0  0
    0.0000    0.0000    0.0000 C   0  0  0  0  0  0  0  0  0  0  0  0
    0.0000    0.0000    0.0000 C   0  0  0  0  0  0  0  0  0  0  0  0
    0.0000    0.0000    0.0000 C   0  0  0  0  0  0  0  0  0  0  0  0
    0.0000    0.0000    0.0000 C   0  0  0  0  0  0  0  0  0  0  0  0
    0.0000    0.0000    0.0000 C   0  0  0  0  0  0  0  0  0  0  0  0
    0.0000    0.0000    0.0000 C   0  0  0  0  0  0  0  0  0  0  0  0
    0.0000    0.0000    0.0000 C   0  0  0  0  0  0  0  0  0  0  0  0
    0.0000    0.0000    0.0000 C   0  0  0  0  0  0  0  0  0  0  0  0
    0.0000    0.0000    0.0000 C   0  0  0  0  0  0  0  0  0  0  0  0
    0.0000    0.0000    0.0000 C   0  0  0  0  0  0  0  0  0  0  0  0
  1  2  1  0
  2  3  1  0
  3  4  2  0
  4  5  1  0
  5  6  2  0
  6  7  1  0
  7  8  2  0
  7  9  1  0
  9 10  1  0
 10 11  1  0
 11 12  1  0
 12 13  1  0
 13 14  1  0
 14 15  1  0
 15 16  1  0
 16 17  1  0
 17 18  2  0
 18 19  1  0
 19 20  2  0
 20 21  1  0
 21 22  2  0
 12 23  1  0
 23 24  1  0
  8  3  1  0
 24  9  1  0
 16 14  1  0
 22 17  1  0
M  END
>  <pIC50>  (27) 
6.77

>  <ChEMBL_ID>  (27) 
CHEMBL1202217

>  <document_journal>  (27) 
J. Med. Chem.

>  <bao_endpoint>  (27) 
BAO_0000190

>  <potential_duplicate>  (27) 
False

>  <uo_units>  (27) 
UO_0000065

>  <canonical_smiles>  (27) 
Br.COc1cccc(c1)N2CCN(C[C@H]3C[C@@H]3c4ccccc4)CC2

>  <parent_molecule_chembl_id>  (27) 
CHEMBL125910

>  <assay_type>  (27) 
B

>  <src_id>  (27) 
1

>  <ligand_efficiency>  (27) 
{u'le': u'0.39', u'bei': u'20.99', u'sei': u'43.07', u'lle': u'2.73'}

>  <standard_flag>  (27) 
True

>  <molecule_chembl_id>  (27) 
CHEMBL1202217

>  <target_organism>  (27) 
Homo sapiens

>  <standard_units>  (27) 
nM

>  <record_id>  (27) 
244333

>  <document_chembl_id>  (27) 
CHEMBL1133592

>  <bao_format>  (27) 
BAO_0000357

>  <data_validity_description>  (27) 
None

>  <activity_id>  (27) 
278123

>  <standard_type>  (27) 
IC50

>  <target_chembl_id>  (27) 
CHEMBL217

>  <data_validity_comment>  (27) 
None

>  <published_value>  (27) 
171

>  <document_year>  (27) 
2000

>  <target_pref_name>  (27) 
Dopamine D2 receptor

>  <assay_chembl_id>  (27) 
CHEMBL671074

>  <standard_relation>  (27) 
=

>  <assay_description>  (27) 
Binding affinity to dopamine receptor D2 cloned from human, using [3H]- YM09151 as competitive ligand

>  <published_relation>  (27) 
=

>  <standard_value>  (27) 
171

>  <qudt_units>  (27) 
http://www.openphacts.org/units/Nanomolar

>  <target_tax_id>  (27) 
9606

>  <bao_label>  (27) 
single protein format

>  <published_units>  (27) 
nM

>  <pchembl_value>  (27) 
6.77

>  <published_type>  (27) 
IC50

>  <activity_comment>  (27) 
None

$$$$

     RDKit          

 25 28  0  0  0  0  0  0  0  0999 V2000
    0.0000    0.0000    0.0000 O   0  0  0  0  0  0  0  0  0  0  0  0
    0.0000    0.0000    0.0000 C   0  0  0  0  0  0  0  0  0  0  0  0
    0.0000    0.0000    0.0000 C   0  0  0  0  0  0  0  0  0  0  0  0
    0.0000    0.0000    0.0000 C   0  0  0  0  0  0  0  0  0  0  0  0
    0.0000    0.0000    0.0000 C   0  0  0  0  0  0  0  0  0  0  0  0
    0.0000    0.0000    0.0000 C   0  0  0  0  0  0  0  0  0  0  0  0
    0.0000    0.0000    0.0000 C   0  0  0  0  0  0  0  0  0  0  0  0
    0.0000    0.0000    0.0000 C   0  0  0  0  0  0  0  0  0  0  0  0
    0.0000    0.0000    0.0000 C   0  0  0  0  0  0  0  0  0  0  0  0
    0.0000    0.0000    0.0000 C   0  0  0  0  0  0  0  0  0  0  0  0
    0.0000    0.0000    0.0000 C   0  0  0  0  0  0  0  0  0  0  0  0
    0.0000    0.0000    0.0000 N   0  0  0  0  0  0  0  0  0  0  0  0
    0.0000    0.0000    0.0000 C   0  0  0  0  0  0  0  0  0  0  0  0
    0.0000    0.0000    0.0000 C   0  0  0  0  0  0  0  0  0  0  0  0
    0.0000    0.0000    0.0000 N   0  0  0  0  0  0  0  0  0  0  0  0
    0.0000    0.0000    0.0000 C   0  0  0  0  0  0  0  0  0  0  0  0
    0.0000    0.0000    0.0000 C   0  0  0  0  0  0  0  0  0  0  0  0
    0.0000    0.0000    0.0000 C   0  0  0  0  0  0  0  0  0  0  0  0
    0.0000    0.0000    0.0000 C   0  0  0  0  0  0  0  0  0  0  0  0
    0.0000    0.0000    0.0000 C   0  0  0  0  0  0  0  0  0  0  0  0
    0.0000    0.0000    0.0000 C   0  0  0  0  0  0  0  0  0  0  0  0
    0.0000    0.0000    0.0000 Cl  0  0  0  0  0  0  0  0  0  0  0  0
    0.0000    0.0000    0.0000 C   0  0  0  0  0  0  0  0  0  0  0  0
    0.0000    0.0000    0.0000 C   0  0  0  0  0  0  0  0  0  0  0  0
    0.0000    0.0000    0.0000 Cl  0  0  0  0  0  0  0  0  0  0  0  0
  1  2  1  0
  2  3  2  0
  3  4  1  0
  4  5  2  0
  5  6  1  0
  6  7  2  0
  5  8  1  0
  8  9  1  0
  9 10  1  0
 10 11  1  0
 11 12  1  0
 12 13  1  0
 13 14  1  0
 14 15  1  0
 15 16  1  0
 16 17  1  0
 15 18  1  0
 18 19  2  0
 19 20  1  0
 20 21  2  0
 21 22  1  0
 21 23  1  0
 23 24  2  0
 24 25  1  0
  7  2  1  0
 10  8  1  0
 17 12  1  0
 24 18  1  0
M  END
>  <pIC50>  (28) 
7.92

>  <ChEMBL_ID>  (28) 
CHEMBL1202202

>  <document_journal>  (28) 
J. Med. Chem.

>  <bao_endpoint>  (28) 
BAO_0000190

>  <potential_duplicate>  (28) 
False

>  <uo_units>  (28) 
UO_0000065

>  <canonical_smiles>  (28) 
Br.Oc1ccc(cc1)[C@H]2C[C@@H]2CN3CCN(CC3)c4ccc(Cl)cc4Cl

>  <parent_molecule_chembl_id>  (28) 
CHEMBL126126

>  <assay_type>  (28) 
B

>  <src_id>  (28) 
1

>  <ligand_efficiency>  (28) 
{u'le': u'0.43', u'bei': u'20.99', u'sei': u'29.65', u'lle': u'2.78'}

>  <standard_flag>  (28) 
True

>  <molecule_chembl_id>  (28) 
CHEMBL1202202

>  <target_organism>  (28) 
Homo sapiens

>  <standard_units>  (28) 
nM

>  <record_id>  (28) 
244342

>  <document_chembl_id>  (28) 
CHEMBL1133592

>  <bao_format>  (28) 
BAO_0000357

>  <data_validity_description>  (28) 
None

>  <activity_id>  (28) 
282922

>  <standard_type>  (28) 
IC50

>  <target_chembl_id>  (28) 
CHEMBL217

>  <data_validity_comment>  (28) 
None

>  <published_value>  (28) 
12

>  <document_year>  (28) 
2000

>  <target_pref_name>  (28) 
Dopamine D2 receptor

>  <assay_chembl_id>  (28) 
CHEMBL671074

>  <standard_relation>  (28) 
=

>  <assay_description>  (28) 
Binding affinity to dopamine receptor D2 cloned from human, using [3H]- YM09151 as competitive ligand

>  <published_relation>  (28) 
=

>  <standard_value>  (28) 
12

>  <qudt_units>  (28) 
http://www.openphacts.org/units/Nanomolar

>  <target_tax_id>  (28) 
9606

>  <bao_label>  (28) 
single protein format

>  <published_units>  (28) 
nM

>  <pchembl_value>  (28) 
7.92

>  <published_type>  (28) 
IC50

>  <activity_comment>  (28) 
None

$$$$

     RDKit          

 26 28  0  0  0  0  0  0  0  0999 V2000
    0.0000    0.0000    0.0000 O   0  0  0  0  0  0  0  0  0  0  0  0
    0.0000    0.0000    0.0000 C   0  0  0  0  0  0  0  0  0  0  0  0
    0.0000    0.0000    0.0000 C   0  0  0  0  0  0  0  0  0  0  0  0
    0.0000    0.0000    0.0000 C   0  0  0  0  0  0  0  0  0  0  0  0
    0.0000    0.0000    0.0000 N   0  0  0  0  0  0  0  0  0  0  0  0
    0.0000    0.0000    0.0000 C   0  0  0  0  0  0  0  0  0  0  0  0
    0.0000    0.0000    0.0000 C   0  0  0  0  0  0  0  0  0  0  0  0
    0.0000    0.0000    0.0000 C   0  0  0  0  0  0  0  0  0  0  0  0
    0.0000    0.0000    0.0000 C   0  0  0  0  0  0  0  0  0  0  0  0
    0.0000    0.0000    0.0000 O   0  0  0  0  0  0  0  0  0  0  0  0
    0.0000    0.0000    0.0000 C   0  0  0  0  0  0  0  0  0  0  0  0
    0.0000    0.0000    0.0000 C   0  0  0  0  0  0  0  0  0  0  0  0
    0.0000    0.0000    0.0000 C   0  0  0  0  0  0  0  0  0  0  0  0
    0.0000    0.0000    0.0000 C   0  0  0  0  0  0  0  0  0  0  0  0
    0.0000    0.0000    0.0000 F   0  0  0  0  0  0  0  0  0  0  0  0
    0.0000    0.0000    0.0000 C   0  0  0  0  0  0  0  0  0  0  0  0
    0.0000    0.0000    0.0000 C   0  0  0  0  0  0  0  0  0  0  0  0
    0.0000    0.0000    0.0000 C   0  0  0  0  0  0  0  0  0  0  0  0
    0.0000    0.0000    0.0000 C   0  0  0  0  0  0  0  0  0  0  0  0
    0.0000    0.0000    0.0000 C   0  0  0  0  0  0  0  0  0  0  0  0
    0.0000    0.0000    0.0000 C   0  0  0  0  0  0  0  0  0  0  0  0
    0.0000    0.0000    0.0000 C   0  0  0  0  0  0  0  0  0  0  0  0
    0.0000    0.0000    0.0000 C   0  0  0  0  0  0  0  0  0  0  0  0
    0.0000    0.0000    0.0000 Cl  0  0  0  0  0  0  0  0  0  0  0  0
    0.0000    0.0000    0.0000 C   0  0  0  0  0  0  0  0  0  0  0  0
    0.0000    0.0000    0.0000 C   0  0  0  0  0  0  0  0  0  0  0  0
  1  2  1  0
  2  3  1  0
  3  4  1  0
  4  5  1  0
  5  6  1  0
  6  7  1  0
  7  8  1  0
  8  9  1  0
  9 10  2  0
  9 11  1  0
 11 12  2  0
 12 13  1  0
 13 14  2  0
 14 15  1  0
 14 16  1  0
 16 17  2  0
  5 18  1  0
 18 19  1  0
  2 20  1  0
 20 21  2  0
 21 22  1  0
 22 23  2  0
 23 24  1  0
 23 25  1  0
 25 26  2  0
 19  2  1  0
 17 11  1  0
 26 20  1  0
M  END
>  <pIC50>  (29) 
8.22666666667

>  <ChEMBL_ID>  (29) 
CHEMBL54

>  <document_journal>  (29) 
J. Med. Chem.

>  <bao_endpoint>  (29) 
BAO_0000190

>  <potential_duplicate>  (29) 
True

>  <uo_units>  (29) 
UO_0000065

>  <canonical_smiles>  (29) 
OC1(CCN(CCCC(=O)c2ccc(F)cc2)CC1)c3ccc(Cl)cc3

>  <parent_molecule_chembl_id>  (29) 
CHEMBL54

>  <assay_type>  (29) 
B

>  <src_id>  (29) 
1

>  <ligand_efficiency>  (29) 
{u'le': u'0.44', u'bei': u'22.34', u'sei': u'20.72', u'lle': u'4.51'}

>  <standard_flag>  (29) 
True

>  <molecule_chembl_id>  (29) 
CHEMBL54

>  <target_organism>  (29) 
Homo sapiens

>  <standard_units>  (29) 
nM

>  <record_id>  (29) 
244338

>  <document_chembl_id>  (29) 
CHEMBL1133592

>  <bao_format>  (29) 
BAO_0000357

>  <data_validity_description>  (29) 
None

>  <activity_id>  (29) 
285300

>  <standard_type>  (29) 
IC50

>  <target_chembl_id>  (29) 
CHEMBL217

>  <data_validity_comment>  (29) 
None

>  <published_value>  (29) 
4

>  <document_year>  (29) 
2000

>  <target_pref_name>  (29) 
Dopamine D2 receptor

>  <assay_chembl_id>  (29) 
CHEMBL671074

>  <standard_relation>  (29) 
=

>  <assay_description>  (29) 
Binding affinity to dopamine receptor D2 cloned from human, using [3H]- YM09151 as competitive ligand

>  <published_relation>  (29) 
=

>  <standard_value>  (29) 
4

>  <qudt_units>  (29) 
http://www.openphacts.org/units/Nanomolar

>  <target_tax_id>  (29) 
9606

>  <bao_label>  (29) 
single protein format

>  <published_units>  (29) 
nM

>  <pchembl_value>  (29) 
8.4

>  <published_type>  (29) 
IC50

>  <activity_comment>  (29) 
None

$$$$

     RDKit          

 23 26  0  0  0  0  0  0  0  0999 V2000
    0.0000    0.0000    0.0000 Cl  0  0  0  0  0  0  0  0  0  0  0  0
    0.0000    0.0000    0.0000 C   0  0  0  0  0  0  0  0  0  0  0  0
    0.0000    0.0000    0.0000 C   0  0  0  0  0  0  0  0  0  0  0  0
    0.0000    0.0000    0.0000 C   0  0  0  0  0  0  0  0  0  0  0  0
    0.0000    0.0000    0.0000 C   0  0  0  0  0  0  0  0  0  0  0  0
    0.0000    0.0000    0.0000 C   0  0  0  0  0  0  0  0  0  0  0  0
    0.0000    0.0000    0.0000 C   0  0  0  0  0  0  0  0  0  0  0  0
    0.0000    0.0000    0.0000 N   0  0  0  0  0  0  0  0  0  0  0  0
    0.0000    0.0000    0.0000 C   0  0  0  0  0  0  0  0  0  0  0  0
    0.0000    0.0000    0.0000 C   0  0  0  0  0  0  0  0  0  0  0  0
    0.0000    0.0000    0.0000 N   0  0  0  0  0  0  0  0  0  0  0  0
    0.0000    0.0000    0.0000 C   0  0  0  0  0  0  0  0  0  0  0  0
    0.0000    0.0000    0.0000 C   0  0  0  0  0  0  0  0  0  0  0  0
    0.0000    0.0000    0.0000 C   0  0  0  0  0  0  0  0  0  0  0  0
    0.0000    0.0000    0.0000 C   0  0  0  0  0  0  0  0  0  0  0  0
    0.0000    0.0000    0.0000 C   0  0  0  0  0  0  0  0  0  0  0  0
    0.0000    0.0000    0.0000 C   0  0  0  0  0  0  0  0  0  0  0  0
    0.0000    0.0000    0.0000 C   0  0  0  0  0  0  0  0  0  0  0  0
    0.0000    0.0000    0.0000 C   0  0  0  0  0  0  0  0  0  0  0  0
    0.0000    0.0000    0.0000 C   0  0  0  0  0  0  0  0  0  0  0  0
    0.0000    0.0000    0.0000 C   0  0  0  0  0  0  0  0  0  0  0  0
    0.0000    0.0000    0.0000 C   0  0  0  0  0  0  0  0  0  0  0  0
    0.0000    0.0000    0.0000 C   0  0  0  0  0  0  0  0  0  0  0  0
  1  2  1  0
  2  3  2  0
  3  4  1  0
  4  5  2  0
  5  6  1  0
  6  7  2  0
  6  8  1  0
  8  9  1  0
  9 10  1  0
 10 11  1  0
 11 12  1  0
 12 13  1  0
 13 14  1  0
 14 15  1  0
 15 16  1  0
 16 17  2  0
 17 18  1  0
 18 19  2  0
 19 20  1  0
 20 21  2  0
 11 22  1  0
 22 23  1  0
  7  2  1  0
 23  8  1  0
 15 13  1  0
 21 16  1  0
M  END
>  <pIC50>  (30) 
6.84

>  <ChEMBL_ID>  (30) 
CHEMBL1202221

>  <document_journal>  (30) 
J. Med. Chem.

>  <bao_endpoint>  (30) 
BAO_0000190

>  <potential_duplicate>  (30) 
False

>  <uo_units>  (30) 
UO_0000065

>  <canonical_smiles>  (30) 
Br.Clc1cccc(c1)N2CCN(C[C@H]3C[C@@H]3c4ccccc4)CC2

>  <parent_molecule_chembl_id>  (30) 
CHEMBL126182

>  <assay_type>  (30) 
B

>  <src_id>  (30) 
1

>  <ligand_efficiency>  (30) 
{u'le': u'0.41', u'bei': u'20.91', u'sei': u'105.49', u'lle': u'2.12'}

>  <standard_flag>  (30) 
True

>  <molecule_chembl_id>  (30) 
CHEMBL1202221

>  <target_organism>  (30) 
Homo sapiens

>  <standard_units>  (30) 
nM

>  <record_id>  (30) 
244335

>  <document_chembl_id>  (30) 
CHEMBL1133592

>  <bao_format>  (30) 
BAO_0000357

>  <data_validity_description>  (30) 
None

>  <activity_id>  (30) 
286421

>  <standard_type>  (30) 
IC50

>  <target_chembl_id>  (30) 
CHEMBL217

>  <data_validity_comment>  (30) 
None

>  <published_value>  (30) 
146

>  <document_year>  (30) 
2000

>  <target_pref_name>  (30) 
Dopamine D2 receptor

>  <assay_chembl_id>  (30) 
CHEMBL671074

>  <standard_relation>  (30) 
=

>  <assay_description>  (30) 
Binding affinity to dopamine receptor D2 cloned from human, using [3H]- YM09151 as competitive ligand

>  <published_relation>  (30) 
=

>  <standard_value>  (30) 
146

>  <qudt_units>  (30) 
http://www.openphacts.org/units/Nanomolar

>  <target_tax_id>  (30) 
9606

>  <bao_label>  (30) 
single protein format

>  <published_units>  (30) 
nM

>  <pchembl_value>  (30) 
6.84

>  <published_type>  (30) 
IC50

>  <activity_comment>  (30) 
None

$$$$

     RDKit          

 23 26  0  0  0  0  0  0  0  0999 V2000
    0.0000    0.0000    0.0000 Cl  0  0  0  0  0  0  0  0  0  0  0  0
    0.0000    0.0000    0.0000 C   0  0  0  0  0  0  0  0  0  0  0  0
    0.0000    0.0000    0.0000 C   0  0  0  0  0  0  0  0  0  0  0  0
    0.0000    0.0000    0.0000 C   0  0  0  0  0  0  0  0  0  0  0  0
    0.0000    0.0000    0.0000 C   0  0  0  0  0  0  0  0  0  0  0  0
    0.0000    0.0000    0.0000 C   0  0  0  0  0  0  0  0  0  0  0  0
    0.0000    0.0000    0.0000 C   0  0  0  0  0  0  0  0  0  0  0  0
    0.0000    0.0000    0.0000 N   0  0  0  0  0  0  0  0  0  0  0  0
    0.0000    0.0000    0.0000 C   0  0  0  0  0  0  0  0  0  0  0  0
    0.0000    0.0000    0.0000 C   0  0  0  0  0  0  0  0  0  0  0  0
    0.0000    0.0000    0.0000 N   0  0  0  0  0  0  0  0  0  0  0  0
    0.0000    0.0000    0.0000 C   0  0  0  0  0  0  0  0  0  0  0  0
    0.0000    0.0000    0.0000 C   0  0  0  0  0  0  0  0  0  0  0  0
    0.0000    0.0000    0.0000 C   0  0  0  0  0  0  0  0  0  0  0  0
    0.0000    0.0000    0.0000 C   0  0  0  0  0  0  0  0  0  0  0  0
    0.0000    0.0000    0.0000 C   0  0  0  0  0  0  0  0  0  0  0  0
    0.0000    0.0000    0.0000 C   0  0  0  0  0  0  0  0  0  0  0  0
    0.0000    0.0000    0.0000 C   0  0  0  0  0  0  0  0  0  0  0  0
    0.0000    0.0000    0.0000 C   0  0  0  0  0  0  0  0  0  0  0  0
    0.0000    0.0000    0.0000 C   0  0  0  0  0  0  0  0  0  0  0  0
    0.0000    0.0000    0.0000 C   0  0  0  0  0  0  0  0  0  0  0  0
    0.0000    0.0000    0.0000 C   0  0  0  0  0  0  0  0  0  0  0  0
    0.0000    0.0000    0.0000 C   0  0  0  0  0  0  0  0  0  0  0  0
  1  2  1  0
  2  3  2  0
  3  4  1  0
  4  5  2  0
  5  6  1  0
  6  7  2  0
  5  8  1  0
  8  9  1  0
  9 10  1  0
 10 11  1  0
 11 12  1  0
 12 13  1  0
 13 14  1  0
 14 15  1  0
 15 16  1  0
 16 17  2  0
 17 18  1  0
 18 19  2  0
 19 20  1  0
 20 21  2  0
 11 22  1  0
 22 23  1  0
  7  2  1  0
 23  8  1  0
 15 13  1  0
 21 16  1  0
M  END
>  <pIC50>  (31) 
6.61

>  <ChEMBL_ID>  (31) 
CHEMBL1202220

>  <document_journal>  (31) 
J. Med. Chem.

>  <bao_endpoint>  (31) 
BAO_0000190

>  <potential_duplicate>  (31) 
False

>  <uo_units>  (31) 
UO_0000065

>  <canonical_smiles>  (31) 
Br.Clc1ccc(cc1)N2CCN(C[C@H]3C[C@@H]3c4ccccc4)CC2

>  <parent_molecule_chembl_id>  (31) 
CHEMBL419610

>  <assay_type>  (31) 
B

>  <src_id>  (31) 
1

>  <ligand_efficiency>  (31) 
{u'le': u'0.39', u'bei': u'20.22', u'sei': u'101.99', u'lle': u'1.89'}

>  <standard_flag>  (31) 
True

>  <molecule_chembl_id>  (31) 
CHEMBL1202220

>  <target_organism>  (31) 
Homo sapiens

>  <standard_units>  (31) 
nM

>  <record_id>  (31) 
244334

>  <document_chembl_id>  (31) 
CHEMBL1133592

>  <bao_format>  (31) 
BAO_0000357

>  <data_validity_description>  (31) 
None

>  <activity_id>  (31) 
286424

>  <standard_type>  (31) 
IC50

>  <target_chembl_id>  (31) 
CHEMBL217

>  <data_validity_comment>  (31) 
None

>  <published_value>  (31) 
246

>  <document_year>  (31) 
2000

>  <target_pref_name>  (31) 
Dopamine D2 receptor

>  <assay_chembl_id>  (31) 
CHEMBL671074

>  <standard_relation>  (31) 
=

>  <assay_description>  (31) 
Binding affinity to dopamine receptor D2 cloned from human, using [3H]- YM09151 as competitive ligand

>  <published_relation>  (31) 
=

>  <standard_value>  (31) 
246

>  <qudt_units>  (31) 
http://www.openphacts.org/units/Nanomolar

>  <target_tax_id>  (31) 
9606

>  <bao_label>  (31) 
single protein format

>  <published_units>  (31) 
nM

>  <pchembl_value>  (31) 
6.61

>  <published_type>  (31) 
IC50

>  <activity_comment>  (31) 
None

$$$$

     RDKit          

 22 25  0  0  0  0  0  0  0  0999 V2000
    0.0000    0.0000    0.0000 C   0  0  0  0  0  0  0  0  0  0  0  0
    0.0000    0.0000    0.0000 C   0  0  0  0  0  0  0  0  0  0  0  0
    0.0000    0.0000    0.0000 C   0  0  0  0  0  0  0  0  0  0  0  0
    0.0000    0.0000    0.0000 C   0  0  0  0  0  0  0  0  0  0  0  0
    0.0000    0.0000    0.0000 C   0  0  0  0  0  0  0  0  0  0  0  0
    0.0000    0.0000    0.0000 C   0  0  0  0  0  0  0  0  0  0  0  0
    0.0000    0.0000    0.0000 C   0  0  0  0  0  0  0  0  0  0  0  0
    0.0000    0.0000    0.0000 C   0  0  0  0  0  0  0  0  0  0  0  0
    0.0000    0.0000    0.0000 C   0  0  0  0  0  0  0  0  0  0  0  0
    0.0000    0.0000    0.0000 C   0  0  0  0  0  0  0  0  0  0  0  0
    0.0000    0.0000    0.0000 N   0  0  0  0  0  0  0  0  0  0  0  0
    0.0000    0.0000    0.0000 C   0  0  0  0  0  0  0  0  0  0  0  0
    0.0000    0.0000    0.0000 C   0  0  0  0  0  0  0  0  0  0  0  0
    0.0000    0.0000    0.0000 N   0  0  0  0  0  0  0  0  0  0  0  0
    0.0000    0.0000    0.0000 C   0  0  0  0  0  0  0  0  0  0  0  0
    0.0000    0.0000    0.0000 C   0  0  0  0  0  0  0  0  0  0  0  0
    0.0000    0.0000    0.0000 C   0  0  0  0  0  0  0  0  0  0  0  0
    0.0000    0.0000    0.0000 N   0  0  0  0  0  0  0  0  0  0  0  0
    0.0000    0.0000    0.0000 C   0  0  0  0  0  0  0  0  0  0  0  0
    0.0000    0.0000    0.0000 C   0  0  0  0  0  0  0  0  0  0  0  0
    0.0000    0.0000    0.0000 C   0  0  0  0  0  0  0  0  0  0  0  0
    0.0000    0.0000    0.0000 N   0  0  0  0  0  0  0  0  0  0  0  0
  1  2  1  0
  2  3  1  0
  3  4  1  0
  4  5  1  0
  5  6  2  0
  6  7  1  0
  7  8  2  0
  8  9  1  0
  9 10  2  0
  1 11  1  0
 11 12  1  0
 12 13  1  0
 13 14  1  0
 14 15  1  0
 15 16  1  0
 14 17  1  0
 17 18  2  0
 18 19  1  0
 19 20  2  0
 20 21  1  0
 21 22  2  0
  4  2  1  0
 10  5  1  0
 16 11  1  0
 22 17  1  0
M  END
>  <pIC50>  (32) 
6.12

>  <ChEMBL_ID>  (32) 
CHEMBL1203257

>  <document_journal>  (32) 
J. Med. Chem.

>  <bao_endpoint>  (32) 
BAO_0000190

>  <potential_duplicate>  (32) 
False

>  <uo_units>  (32) 
UO_0000065

>  <canonical_smiles>  (32) 
Cl.C([C@H]1C[C@@H]1c2ccccc2)N3CCN(CC3)c4ncccn4

>  <parent_molecule_chembl_id>  (32) 
CHEMBL126847

>  <assay_type>  (32) 
B

>  <src_id>  (32) 
1

>  <ligand_efficiency>  (32) 
{u'le': u'0.38', u'bei': u'20.77', u'sei': u'18.96', u'lle': u'3.32'}

>  <standard_flag>  (32) 
True

>  <molecule_chembl_id>  (32) 
CHEMBL1203257

>  <target_organism>  (32) 
Homo sapiens

>  <standard_units>  (32) 
nM

>  <record_id>  (32) 
244344

>  <document_chembl_id>  (32) 
CHEMBL1133592

>  <bao_format>  (32) 
BAO_0000357

>  <data_validity_description>  (32) 
None

>  <activity_id>  (32) 
286427

>  <standard_type>  (32) 
IC50

>  <target_chembl_id>  (32) 
CHEMBL217

>  <data_validity_comment>  (32) 
None

>  <published_value>  (32) 
766

>  <document_year>  (32) 
2000

>  <target_pref_name>  (32) 
Dopamine D2 receptor

>  <assay_chembl_id>  (32) 
CHEMBL671074

>  <standard_relation>  (32) 
=

>  <assay_description>  (32) 
Binding affinity to dopamine receptor D2 cloned from human, using [3H]- YM09151 as competitive ligand

>  <published_relation>  (32) 
=

>  <standard_value>  (32) 
766

>  <qudt_units>  (32) 
http://www.openphacts.org/units/Nanomolar

>  <target_tax_id>  (32) 
9606

>  <bao_label>  (32) 
single protein format

>  <published_units>  (32) 
nM

>  <pchembl_value>  (32) 
6.12

>  <published_type>  (32) 
IC50

>  <activity_comment>  (32) 
None

$$$$

     RDKit          

 24 27  0  0  0  0  0  0  0  0999 V2000
    0.0000    0.0000    0.0000 F   0  0  0  0  0  0  0  0  0  0  0  0
    0.0000    0.0000    0.0000 C   0  0  0  0  0  0  0  0  0  0  0  0
    0.0000    0.0000    0.0000 C   0  0  0  0  0  0  0  0  0  0  0  0
    0.0000    0.0000    0.0000 C   0  0  0  0  0  0  0  0  0  0  0  0
    0.0000    0.0000    0.0000 C   0  0  0  0  0  0  0  0  0  0  0  0
    0.0000    0.0000    0.0000 C   0  0  0  0  0  0  0  0  0  0  0  0
    0.0000    0.0000    0.0000 C   0  0  0  0  0  0  0  0  0  0  0  0
    0.0000    0.0000    0.0000 C   0  0  0  0  0  0  0  0  0  0  0  0
    0.0000    0.0000    0.0000 C   0  0  0  0  0  0  0  0  0  0  0  0
    0.0000    0.0000    0.0000 C   0  0  0  0  0  0  0  0  0  0  0  0
    0.0000    0.0000    0.0000 C   0  0  0  0  0  0  0  0  0  0  0  0
    0.0000    0.0000    0.0000 N   0  0  0  0  0  0  0  0  0  0  0  0
    0.0000    0.0000    0.0000 C   0  0  0  0  0  0  0  0  0  0  0  0
    0.0000    0.0000    0.0000 C   0  0  0  0  0  0  0  0  0  0  0  0
    0.0000    0.0000    0.0000 N   0  0  0  0  0  0  0  0  0  0  0  0
    0.0000    0.0000    0.0000 C   0  0  0  0  0  0  0  0  0  0  0  0
    0.0000    0.0000    0.0000 C   0  0  0  0  0  0  0  0  0  0  0  0
    0.0000    0.0000    0.0000 C   0  0  0  0  0  0  0  0  0  0  0  0
    0.0000    0.0000    0.0000 C   0  0  0  0  0  0  0  0  0  0  0  0
    0.0000    0.0000    0.0000 C   0  0  0  0  0  0  0  0  0  0  0  0
    0.0000    0.0000    0.0000 C   0  0  0  0  0  0  0  0  0  0  0  0
    0.0000    0.0000    0.0000 C   0  0  0  0  0  0  0  0  0  0  0  0
    0.0000    0.0000    0.0000 C   0  0  0  0  0  0  0  0  0  0  0  0
    0.0000    0.0000    0.0000 Cl  0  0  0  0  0  0  0  0  0  0  0  0
  1  2  1  0
  2  3  2  0
  3  4  1  0
  4  5  2  0
  5  6  1  0
  6  7  2  0
  5  8  1  0
  8  9  1  0
  9 10  1  0
 10 11  1  0
 11 12  1  0
 12 13  1  0
 13 14  1  0
 14 15  1  0
 15 16  1  0
 16 17  1  0
 15 18  1  0
 18 19  2  0
 19 20  1  0
 20 21  2  0
 21 22  1  0
 22 23  2  0
 23 24  1  0
  7  2  1  0
 10  8  1  0
 17 12  1  0
 23 18  1  0
M  END
>  <pIC50>  (33) 
7.89

>  <ChEMBL_ID>  (33) 
CHEMBL1202219

>  <document_journal>  (33) 
J. Med. Chem.

>  <bao_endpoint>  (33) 
BAO_0000190

>  <potential_duplicate>  (33) 
False

>  <uo_units>  (33) 
UO_0000065

>  <canonical_smiles>  (33) 
Br.Fc1ccc(cc1)[C@H]2C[C@@H]2CN3CCN(CC3)c4ccccc4Cl

>  <parent_molecule_chembl_id>  (33) 
CHEMBL126322

>  <assay_type>  (33) 
B

>  <src_id>  (33) 
1

>  <ligand_efficiency>  (33) 
{u'le': u'0.45', u'bei': u'22.87', u'sei': u'121.7', u'lle': u'2.97'}

>  <standard_flag>  (33) 
True

>  <molecule_chembl_id>  (33) 
CHEMBL1202219

>  <target_organism>  (33) 
Homo sapiens

>  <standard_units>  (33) 
nM

>  <record_id>  (33) 
244341

>  <document_chembl_id>  (33) 
CHEMBL1133592

>  <bao_format>  (33) 
BAO_0000357

>  <data_validity_description>  (33) 
None

>  <activity_id>  (33) 
286430

>  <standard_type>  (33) 
IC50

>  <target_chembl_id>  (33) 
CHEMBL217

>  <data_validity_comment>  (33) 
None

>  <published_value>  (33) 
13

>  <document_year>  (33) 
2000

>  <target_pref_name>  (33) 
Dopamine D2 receptor

>  <assay_chembl_id>  (33) 
CHEMBL671074

>  <standard_relation>  (33) 
=

>  <assay_description>  (33) 
Binding affinity to dopamine receptor D2 cloned from human, using [3H]- YM09151 as competitive ligand

>  <published_relation>  (33) 
=

>  <standard_value>  (33) 
13

>  <qudt_units>  (33) 
http://www.openphacts.org/units/Nanomolar

>  <target_tax_id>  (33) 
9606

>  <bao_label>  (33) 
single protein format

>  <published_units>  (33) 
nM

>  <pchembl_value>  (33) 
7.89

>  <published_type>  (33) 
IC50

>  <activity_comment>  (33) 
None

$$$$

     RDKit          

 24 27  0  0  0  0  0  0  0  0999 V2000
    0.0000    0.0000    0.0000 C   0  0  0  0  0  0  0  0  0  0  0  0
    0.0000    0.0000    0.0000 C   0  0  0  0  0  0  0  0  0  0  0  0
    0.0000    0.0000    0.0000 C   0  0  0  0  0  0  0  0  0  0  0  0
    0.0000    0.0000    0.0000 C   0  0  0  0  0  0  0  0  0  0  0  0
    0.0000    0.0000    0.0000 Cl  0  0  0  0  0  0  0  0  0  0  0  0
    0.0000    0.0000    0.0000 C   0  0  0  0  0  0  0  0  0  0  0  0
    0.0000    0.0000    0.0000 C   0  0  0  0  0  0  0  0  0  0  0  0
    0.0000    0.0000    0.0000 C   0  0  0  0  0  0  0  0  0  0  0  0
    0.0000    0.0000    0.0000 N   0  0  0  0  0  0  0  0  0  0  0  0
    0.0000    0.0000    0.0000 C   0  0  0  0  0  0  0  0  0  0  0  0
    0.0000    0.0000    0.0000 C   0  0  0  0  0  0  0  0  0  0  0  0
    0.0000    0.0000    0.0000 N   0  0  0  0  0  0  0  0  0  0  0  0
    0.0000    0.0000    0.0000 C   0  0  0  0  0  0  0  0  0  0  0  0
    0.0000    0.0000    0.0000 C   0  0  0  0  0  0  0  0  0  0  0  0
    0.0000    0.0000    0.0000 C   0  0  0  0  0  0  0  0  0  0  0  0
    0.0000    0.0000    0.0000 C   0  0  0  0  0  0  0  0  0  0  0  0
    0.0000    0.0000    0.0000 C   0  0  0  0  0  0  0  0  0  0  0  0
    0.0000    0.0000    0.0000 C   0  0  0  0  0  0  0  0  0  0  0  0
    0.0000    0.0000    0.0000 C   0  0  0  0  0  0  0  0  0  0  0  0
    0.0000    0.0000    0.0000 C   0  0  0  0  0  0  0  0  0  0  0  0
    0.0000    0.0000    0.0000 C   0  0  0  0  0  0  0  0  0  0  0  0
    0.0000    0.0000    0.0000 C   0  0  0  0  0  0  0  0  0  0  0  0
    0.0000    0.0000    0.0000 C   0  0  0  0  0  0  0  0  0  0  0  0
    0.0000    0.0000    0.0000 C   0  0  0  0  0  0  0  0  0  0  0  0
  1  2  1  0
  2  3  2  0
  3  4  1  0
  4  5  1  0
  4  6  2  0
  6  7  1  0
  7  8  2  0
  8  9  1  0
  9 10  1  0
 10 11  1  0
 11 12  1  0
 12 13  1  0
 13 14  1  0
 14 15  1  0
 15 16  1  0
 16 17  1  0
 17 18  2  0
 18 19  1  0
 19 20  2  0
 20 21  1  0
 21 22  2  0
 12 23  1  0
 23 24  1  0
  8  2  1  0
 24  9  1  0
 16 14  1  0
 22 17  1  0
M  END
>  <pIC50>  (34) 
6.89

>  <ChEMBL_ID>  (34) 
CHEMBL1202210

>  <document_journal>  (34) 
J. Med. Chem.

>  <bao_endpoint>  (34) 
BAO_0000190

>  <potential_duplicate>  (34) 
False

>  <uo_units>  (34) 
UO_0000065

>  <canonical_smiles>  (34) 
Br.Cc1cc(Cl)ccc1N2CCN(C[C@H]3C[C@@H]3c4ccccc4)CC2

>  <parent_molecule_chembl_id>  (34) 
CHEMBL338183

>  <assay_type>  (34) 
B

>  <src_id>  (34) 
1

>  <ligand_efficiency>  (34) 
{u'le': u'0.39', u'bei': u'20.22', u'sei': u'106.37', u'lle': u'1.69'}

>  <standard_flag>  (34) 
True

>  <molecule_chembl_id>  (34) 
CHEMBL1202210

>  <target_organism>  (34) 
Homo sapiens

>  <standard_units>  (34) 
nM

>  <record_id>  (34) 
244356

>  <document_chembl_id>  (34) 
CHEMBL1133592

>  <bao_format>  (34) 
BAO_0000357

>  <data_validity_description>  (34) 
None

>  <activity_id>  (34) 
287574

>  <standard_type>  (34) 
IC50

>  <target_chembl_id>  (34) 
CHEMBL217

>  <data_validity_comment>  (34) 
None

>  <published_value>  (34) 
128

>  <document_year>  (34) 
2000

>  <target_pref_name>  (34) 
Dopamine D2 receptor

>  <assay_chembl_id>  (34) 
CHEMBL671074

>  <standard_relation>  (34) 
=

>  <assay_description>  (34) 
Binding affinity to dopamine receptor D2 cloned from human, using [3H]- YM09151 as competitive ligand

>  <published_relation>  (34) 
=

>  <standard_value>  (34) 
128

>  <qudt_units>  (34) 
http://www.openphacts.org/units/Nanomolar

>  <target_tax_id>  (34) 
9606

>  <bao_label>  (34) 
single protein format

>  <published_units>  (34) 
nM

>  <pchembl_value>  (34) 
6.89

>  <published_type>  (34) 
IC50

>  <activity_comment>  (34) 
None

$$$$

     RDKit          

 22 25  0  0  0  0  0  0  0  0999 V2000
    0.0000    0.0000    0.0000 C   0  0  0  0  0  0  0  0  0  0  0  0
    0.0000    0.0000    0.0000 C   0  0  0  0  0  0  0  0  0  0  0  0
    0.0000    0.0000    0.0000 C   0  0  0  0  0  0  0  0  0  0  0  0
    0.0000    0.0000    0.0000 C   0  0  0  0  0  0  0  0  0  0  0  0
    0.0000    0.0000    0.0000 C   0  0  0  0  0  0  0  0  0  0  0  0
    0.0000    0.0000    0.0000 C   0  0  0  0  0  0  0  0  0  0  0  0
    0.0000    0.0000    0.0000 C   0  0  0  0  0  0  0  0  0  0  0  0
    0.0000    0.0000    0.0000 C   0  0  0  0  0  0  0  0  0  0  0  0
    0.0000    0.0000    0.0000 C   0  0  0  0  0  0  0  0  0  0  0  0
    0.0000    0.0000    0.0000 C   0  0  0  0  0  0  0  0  0  0  0  0
    0.0000    0.0000    0.0000 N   0  0  0  0  0  0  0  0  0  0  0  0
    0.0000    0.0000    0.0000 C   0  0  0  0  0  0  0  0  0  0  0  0
    0.0000    0.0000    0.0000 C   0  0  0  0  0  0  0  0  0  0  0  0
    0.0000    0.0000    0.0000 N   0  0  0  0  0  0  0  0  0  0  0  0
    0.0000    0.0000    0.0000 C   0  0  0  0  0  0  0  0  0  0  0  0
    0.0000    0.0000    0.0000 C   0  0  0  0  0  0  0  0  0  0  0  0
    0.0000    0.0000    0.0000 C   0  0  0  0  0  0  0  0  0  0  0  0
    0.0000    0.0000    0.0000 C   0  0  0  0  0  0  0  0  0  0  0  0
    0.0000    0.0000    0.0000 C   0  0  0  0  0  0  0  0  0  0  0  0
    0.0000    0.0000    0.0000 C   0  0  0  0  0  0  0  0  0  0  0  0
    0.0000    0.0000    0.0000 C   0  0  0  0  0  0  0  0  0  0  0  0
    0.0000    0.0000    0.0000 C   0  0  0  0  0  0  0  0  0  0  0  0
  1  2  1  0
  2  3  1  0
  3  4  1  0
  4  5  1  0
  5  6  2  0
  6  7  1  0
  7  8  2  0
  8  9  1  0
  9 10  2  0
  1 11  1  0
 11 12  1  0
 12 13  1  0
 13 14  1  0
 14 15  1  0
 15 16  1  0
 14 17  1  0
 17 18  2  0
 18 19  1  0
 19 20  2  0
 20 21  1  0
 21 22  2  0
  4  2  1  0
 10  5  1  0
 16 11  1  0
 22 17  1  0
M  END
>  <pIC50>  (35) 
7.43

>  <ChEMBL_ID>  (35) 
CHEMBL341497

>  <document_journal>  (35) 
J. Med. Chem.

>  <bao_endpoint>  (35) 
BAO_0000190

>  <potential_duplicate>  (35) 
False

>  <uo_units>  (35) 
UO_0000065

>  <canonical_smiles>  (35) 
C([C@H]1C[C@@H]1c2ccccc2)N3CCN(CC3)c4ccccc4

>  <parent_molecule_chembl_id>  (35) 
CHEMBL341497

>  <assay_type>  (35) 
B

>  <src_id>  (35) 
1

>  <ligand_efficiency>  (35) 
{u'le': u'0.46', u'bei': u'25.41', u'sei': u'114.69', u'lle': u'3.38'}

>  <standard_flag>  (35) 
True

>  <molecule_chembl_id>  (35) 
CHEMBL341497

>  <target_organism>  (35) 
Homo sapiens

>  <standard_units>  (35) 
nM

>  <record_id>  (35) 
244330

>  <document_chembl_id>  (35) 
CHEMBL1133592

>  <bao_format>  (35) 
BAO_0000357

>  <data_validity_description>  (35) 
None

>  <activity_id>  (35) 
290110

>  <standard_type>  (35) 
IC50

>  <target_chembl_id>  (35) 
CHEMBL217

>  <data_validity_comment>  (35) 
None

>  <published_value>  (35) 
37

>  <document_year>  (35) 
2000

>  <target_pref_name>  (35) 
Dopamine D2 receptor

>  <assay_chembl_id>  (35) 
CHEMBL671074

>  <standard_relation>  (35) 
=

>  <assay_description>  (35) 
Binding affinity to dopamine receptor D2 cloned from human, using [3H]- YM09151 as competitive ligand

>  <published_relation>  (35) 
=

>  <standard_value>  (35) 
37

>  <qudt_units>  (35) 
http://www.openphacts.org/units/Nanomolar

>  <target_tax_id>  (35) 
9606

>  <bao_label>  (35) 
single protein format

>  <published_units>  (35) 
nM

>  <pchembl_value>  (35) 
7.43

>  <published_type>  (35) 
IC50

>  <activity_comment>  (35) 
None

$$$$

     RDKit          

 23 26  0  0  0  0  0  0  0  0999 V2000
    0.0000    0.0000    0.0000 Cl  0  0  0  0  0  0  0  0  0  0  0  0
    0.0000    0.0000    0.0000 C   0  0  0  0  0  0  0  0  0  0  0  0
    0.0000    0.0000    0.0000 C   0  0  0  0  0  0  0  0  0  0  0  0
    0.0000    0.0000    0.0000 C   0  0  0  0  0  0  0  0  0  0  0  0
    0.0000    0.0000    0.0000 C   0  0  0  0  0  0  0  0  0  0  0  0
    0.0000    0.0000    0.0000 C   0  0  0  0  0  0  0  0  0  0  0  0
    0.0000    0.0000    0.0000 C   0  0  0  0  0  0  0  0  0  0  0  0
    0.0000    0.0000    0.0000 N   0  0  0  0  0  0  0  0  0  0  0  0
    0.0000    0.0000    0.0000 C   0  0  0  0  0  0  0  0  0  0  0  0
    0.0000    0.0000    0.0000 C   0  0  0  0  0  0  0  0  0  0  0  0
    0.0000    0.0000    0.0000 N   0  0  0  0  0  0  0  0  0  0  0  0
    0.0000    0.0000    0.0000 C   0  0  0  0  0  0  0  0  0  0  0  0
    0.0000    0.0000    0.0000 C   0  0  0  0  0  0  0  0  0  0  0  0
    0.0000    0.0000    0.0000 C   0  0  0  0  0  0  0  0  0  0  0  0
    0.0000    0.0000    0.0000 C   0  0  0  0  0  0  0  0  0  0  0  0
    0.0000    0.0000    0.0000 C   0  0  0  0  0  0  0  0  0  0  0  0
    0.0000    0.0000    0.0000 C   0  0  0  0  0  0  0  0  0  0  0  0
    0.0000    0.0000    0.0000 C   0  0  0  0  0  0  0  0  0  0  0  0
    0.0000    0.0000    0.0000 C   0  0  0  0  0  0  0  0  0  0  0  0
    0.0000    0.0000    0.0000 C   0  0  0  0  0  0  0  0  0  0  0  0
    0.0000    0.0000    0.0000 C   0  0  0  0  0  0  0  0  0  0  0  0
    0.0000    0.0000    0.0000 C   0  0  0  0  0  0  0  0  0  0  0  0
    0.0000    0.0000    0.0000 C   0  0  0  0  0  0  0  0  0  0  0  0
  1  2  1  0
  2  3  2  0
  3  4  1  0
  4  5  2  0
  5  6  1  0
  6  7  2  0
  7  8  1  0
  8  9  1  0
  9 10  1  0
 10 11  1  0
 11 12  1  0
 12 13  1  0
 13 14  1  0
 14 15  1  0
 15 16  1  0
 16 17  2  0
 17 18  1  0
 18 19  2  0
 19 20  1  0
 20 21  2  0
 11 22  1  0
 22 23  1  0
  7  2  1  0
 23  8  1  0
 15 13  1  0
 21 16  1  0
M  END
>  <pIC50>  (36) 
8.3

>  <ChEMBL_ID>  (36) 
CHEMBL1202215

>  <document_journal>  (36) 
J. Med. Chem.

>  <bao_endpoint>  (36) 
BAO_0000190

>  <potential_duplicate>  (36) 
False

>  <uo_units>  (36) 
UO_0000065

>  <canonical_smiles>  (36) 
Br.Clc1ccccc1N2CCN(C[C@H]3C[C@@H]3c4ccccc4)CC2

>  <parent_molecule_chembl_id>  (36) 
CHEMBL126633

>  <assay_type>  (36) 
B

>  <src_id>  (36) 
1

>  <ligand_efficiency>  (36) 
{u'le': u'0.49', u'bei': u'25.4', u'sei': u'128.1', u'lle': u'3.58'}

>  <standard_flag>  (36) 
True

>  <molecule_chembl_id>  (36) 
CHEMBL1202215

>  <target_organism>  (36) 
Homo sapiens

>  <standard_units>  (36) 
nM

>  <record_id>  (36) 
244331

>  <document_chembl_id>  (36) 
CHEMBL1133592

>  <bao_format>  (36) 
BAO_0000357

>  <data_validity_description>  (36) 
None

>  <activity_id>  (36) 
290113

>  <standard_type>  (36) 
IC50

>  <target_chembl_id>  (36) 
CHEMBL217

>  <data_validity_comment>  (36) 
None

>  <published_value>  (36) 
5

>  <document_year>  (36) 
2000

>  <target_pref_name>  (36) 
Dopamine D2 receptor

>  <assay_chembl_id>  (36) 
CHEMBL671074

>  <standard_relation>  (36) 
=

>  <assay_description>  (36) 
Binding affinity to dopamine receptor D2 cloned from human, using [3H]- YM09151 as competitive ligand

>  <published_relation>  (36) 
=

>  <standard_value>  (36) 
5

>  <qudt_units>  (36) 
http://www.openphacts.org/units/Nanomolar

>  <target_tax_id>  (36) 
9606

>  <bao_label>  (36) 
single protein format

>  <published_units>  (36) 
nM

>  <pchembl_value>  (36) 
8.3

>  <published_type>  (36) 
IC50

>  <activity_comment>  (36) 
None

$$$$

     RDKit          

 24 27  0  0  0  0  0  0  0  0999 V2000
    0.0000    0.0000    0.0000 Cl  0  0  0  0  0  0  0  0  0  0  0  0
    0.0000    0.0000    0.0000 C   0  0  0  0  0  0  0  0  0  0  0  0
    0.0000    0.0000    0.0000 C   0  0  0  0  0  0  0  0  0  0  0  0
    0.0000    0.0000    0.0000 C   0  0  0  0  0  0  0  0  0  0  0  0
    0.0000    0.0000    0.0000 C   0  0  0  0  0  0  0  0  0  0  0  0
    0.0000    0.0000    0.0000 C   0  0  0  0  0  0  0  0  0  0  0  0
    0.0000    0.0000    0.0000 C   0  0  0  0  0  0  0  0  0  0  0  0
    0.0000    0.0000    0.0000 Cl  0  0  0  0  0  0  0  0  0  0  0  0
    0.0000    0.0000    0.0000 N   0  0  0  0  0  0  0  0  0  0  0  0
    0.0000    0.0000    0.0000 C   0  0  0  0  0  0  0  0  0  0  0  0
    0.0000    0.0000    0.0000 C   0  0  0  0  0  0  0  0  0  0  0  0
    0.0000    0.0000    0.0000 N   0  0  0  0  0  0  0  0  0  0  0  0
    0.0000    0.0000    0.0000 C   0  0  0  0  0  0  0  0  0  0  0  0
    0.0000    0.0000    0.0000 C   0  0  0  0  0  0  0  0  0  0  0  0
    0.0000    0.0000    0.0000 C   0  0  0  0  0  0  0  0  0  0  0  0
    0.0000    0.0000    0.0000 C   0  0  0  0  0  0  0  0  0  0  0  0
    0.0000    0.0000    0.0000 C   0  0  0  0  0  0  0  0  0  0  0  0
    0.0000    0.0000    0.0000 C   0  0  0  0  0  0  0  0  0  0  0  0
    0.0000    0.0000    0.0000 C   0  0  0  0  0  0  0  0  0  0  0  0
    0.0000    0.0000    0.0000 C   0  0  0  0  0  0  0  0  0  0  0  0
    0.0000    0.0000    0.0000 C   0  0  0  0  0  0  0  0  0  0  0  0
    0.0000    0.0000    0.0000 C   0  0  0  0  0  0  0  0  0  0  0  0
    0.0000    0.0000    0.0000 C   0  0  0  0  0  0  0  0  0  0  0  0
    0.0000    0.0000    0.0000 C   0  0  0  0  0  0  0  0  0  0  0  0
  1  2  1  0
  2  3  2  0
  3  4  1  0
  4  5  2  0
  5  6  1  0
  6  7  2  0
  7  8  1  0
  5  9  1  0
  9 10  1  0
 10 11  1  0
 11 12  1  0
 12 13  1  0
 13 14  1  0
 14 15  1  0
 15 16  1  0
 16 17  1  0
 17 18  2  0
 18 19  1  0
 19 20  2  0
 20 21  1  0
 21 22  2  0
 12 23  1  0
 23 24  1  0
  7  2  1  0
 24  9  1  0
 16 14  1  0
 22 17  1  0
M  END
>  <pIC50>  (37) 
6.68

>  <ChEMBL_ID>  (37) 
CHEMBL1202212

>  <document_journal>  (37) 
J. Med. Chem.

>  <bao_endpoint>  (37) 
BAO_0000190

>  <potential_duplicate>  (37) 
False

>  <uo_units>  (37) 
UO_0000065

>  <canonical_smiles>  (37) 
Br.Clc1ccc(cc1Cl)N2CCN(C[C@H]3C[C@@H]3c4ccccc4)CC2

>  <parent_molecule_chembl_id>  (37) 
CHEMBL126429

>  <assay_type>  (37) 
B

>  <src_id>  (37) 
1

>  <ligand_efficiency>  (37) 
{u'le': u'0.38', u'bei': u'18.49', u'sei': u'103.12', u'lle': u'1.3'}

>  <standard_flag>  (37) 
True

>  <molecule_chembl_id>  (37) 
CHEMBL1202212

>  <target_organism>  (37) 
Homo sapiens

>  <standard_units>  (37) 
nM

>  <record_id>  (37) 
244362

>  <document_chembl_id>  (37) 
CHEMBL1133592

>  <bao_format>  (37) 
BAO_0000357

>  <data_validity_description>  (37) 
None

>  <activity_id>  (37) 
290116

>  <standard_type>  (37) 
IC50

>  <target_chembl_id>  (37) 
CHEMBL217

>  <data_validity_comment>  (37) 
None

>  <published_value>  (37) 
208

>  <document_year>  (37) 
2000

>  <target_pref_name>  (37) 
Dopamine D2 receptor

>  <assay_chembl_id>  (37) 
CHEMBL671074

>  <standard_relation>  (37) 
=

>  <assay_description>  (37) 
Binding affinity to dopamine receptor D2 cloned from human, using [3H]- YM09151 as competitive ligand

>  <published_relation>  (37) 
=

>  <standard_value>  (37) 
208

>  <qudt_units>  (37) 
http://www.openphacts.org/units/Nanomolar

>  <target_tax_id>  (37) 
9606

>  <bao_label>  (37) 
single protein format

>  <published_units>  (37) 
nM

>  <pchembl_value>  (37) 
6.68

>  <published_type>  (37) 
IC50

>  <activity_comment>  (37) 
None

$$$$

     RDKit          

 24 27  0  0  0  0  0  0  0  0999 V2000
    0.0000    0.0000    0.0000 C   0  0  0  0  0  0  0  0  0  0  0  0
    0.0000    0.0000    0.0000 C   0  0  0  0  0  0  0  0  0  0  0  0
    0.0000    0.0000    0.0000 C   0  0  0  0  0  0  0  0  0  0  0  0
    0.0000    0.0000    0.0000 C   0  0  0  0  0  0  0  0  0  0  0  0
    0.0000    0.0000    0.0000 F   0  0  0  0  0  0  0  0  0  0  0  0
    0.0000    0.0000    0.0000 C   0  0  0  0  0  0  0  0  0  0  0  0
    0.0000    0.0000    0.0000 C   0  0  0  0  0  0  0  0  0  0  0  0
    0.0000    0.0000    0.0000 C   0  0  0  0  0  0  0  0  0  0  0  0
    0.0000    0.0000    0.0000 N   0  0  0  0  0  0  0  0  0  0  0  0
    0.0000    0.0000    0.0000 C   0  0  0  0  0  0  0  0  0  0  0  0
    0.0000    0.0000    0.0000 C   0  0  0  0  0  0  0  0  0  0  0  0
    0.0000    0.0000    0.0000 N   0  0  0  0  0  0  0  0  0  0  0  0
    0.0000    0.0000    0.0000 C   0  0  0  0  0  0  0  0  0  0  0  0
    0.0000    0.0000    0.0000 C   0  0  0  0  0  0  0  0  0  0  0  0
    0.0000    0.0000    0.0000 C   0  0  0  0  0  0  0  0  0  0  0  0
    0.0000    0.0000    0.0000 C   0  0  0  0  0  0  0  0  0  0  0  0
    0.0000    0.0000    0.0000 C   0  0  0  0  0  0  0  0  0  0  0  0
    0.0000    0.0000    0.0000 C   0  0  0  0  0  0  0  0  0  0  0  0
    0.0000    0.0000    0.0000 C   0  0  0  0  0  0  0  0  0  0  0  0
    0.0000    0.0000    0.0000 C   0  0  0  0  0  0  0  0  0  0  0  0
    0.0000    0.0000    0.0000 C   0  0  0  0  0  0  0  0  0  0  0  0
    0.0000    0.0000    0.0000 C   0  0  0  0  0  0  0  0  0  0  0  0
    0.0000    0.0000    0.0000 C   0  0  0  0  0  0  0  0  0  0  0  0
    0.0000    0.0000    0.0000 C   0  0  0  0  0  0  0  0  0  0  0  0
  1  2  1  0
  2  3  2  0
  3  4  1  0
  4  5  1  0
  4  6  2  0
  6  7  1  0
  7  8  2  0
  8  9  1  0
  9 10  1  0
 10 11  1  0
 11 12  1  0
 12 13  1  0
 13 14  1  0
 14 15  1  0
 15 16  1  0
 16 17  1  0
 17 18  2  0
 18 19  1  0
 19 20  2  0
 20 21  1  0
 21 22  2  0
 12 23  1  0
 23 24  1  0
  8  2  1  0
 24  9  1  0
 16 14  1  0
 22 17  1  0
M  END
>  <pIC50>  (38) 
7.17

>  <ChEMBL_ID>  (38) 
CHEMBL1202209

>  <document_journal>  (38) 
J. Med. Chem.

>  <bao_endpoint>  (38) 
BAO_0000190

>  <potential_duplicate>  (38) 
False

>  <uo_units>  (38) 
UO_0000065

>  <canonical_smiles>  (38) 
Br.Cc1cc(F)ccc1N2CCN(C[C@H]3C[C@@H]3c4ccccc4)CC2

>  <parent_molecule_chembl_id>  (38) 
CHEMBL339674

>  <assay_type>  (38) 
B

>  <src_id>  (38) 
1

>  <ligand_efficiency>  (38) 
{u'le': u'0.41', u'bei': u'22.09', u'sei': u'110.61', u'lle': u'2.42'}

>  <standard_flag>  (38) 
True

>  <molecule_chembl_id>  (38) 
CHEMBL1202209

>  <target_organism>  (38) 
Homo sapiens

>  <standard_units>  (38) 
nM

>  <record_id>  (38) 
244355

>  <document_chembl_id>  (38) 
CHEMBL1133592

>  <bao_format>  (38) 
BAO_0000357

>  <data_validity_description>  (38) 
None

>  <activity_id>  (38) 
290119

>  <standard_type>  (38) 
IC50

>  <target_chembl_id>  (38) 
CHEMBL217

>  <data_validity_comment>  (38) 
None

>  <published_value>  (38) 
68

>  <document_year>  (38) 
2000

>  <target_pref_name>  (38) 
Dopamine D2 receptor

>  <assay_chembl_id>  (38) 
CHEMBL671074

>  <standard_relation>  (38) 
=

>  <assay_description>  (38) 
Binding affinity to dopamine receptor D2 cloned from human, using [3H]- YM09151 as competitive ligand

>  <published_relation>  (38) 
=

>  <standard_value>  (38) 
68

>  <qudt_units>  (38) 
http://www.openphacts.org/units/Nanomolar

>  <target_tax_id>  (38) 
9606

>  <bao_label>  (38) 
single protein format

>  <published_units>  (38) 
nM

>  <pchembl_value>  (38) 
7.17

>  <published_type>  (38) 
IC50

>  <activity_comment>  (38) 
None

$$$$

     RDKit          

 26 29  0  0  0  0  0  0  0  0999 V2000
    0.0000    0.0000    0.0000 C   0  0  0  0  0  0  0  0  0  0  0  0
    0.0000    0.0000    0.0000 O   0  0  0  0  0  0  0  0  0  0  0  0
    0.0000    0.0000    0.0000 C   0  0  0  0  0  0  0  0  0  0  0  0
    0.0000    0.0000    0.0000 C   0  0  0  0  0  0  0  0  0  0  0  0
    0.0000    0.0000    0.0000 Cl  0  0  0  0  0  0  0  0  0  0  0  0
    0.0000    0.0000    0.0000 C   0  0  0  0  0  0  0  0  0  0  0  0
    0.0000    0.0000    0.0000 C   0  0  0  0  0  0  0  0  0  0  0  0
    0.0000    0.0000    0.0000 C   0  0  0  0  0  0  0  0  0  0  0  0
    0.0000    0.0000    0.0000 C   0  0  0  0  0  0  0  0  0  0  0  0
    0.0000    0.0000    0.0000 Cl  0  0  0  0  0  0  0  0  0  0  0  0
    0.0000    0.0000    0.0000 N   0  0  0  0  0  0  0  0  0  0  0  0
    0.0000    0.0000    0.0000 C   0  0  0  0  0  0  0  0  0  0  0  0
    0.0000    0.0000    0.0000 C   0  0  0  0  0  0  0  0  0  0  0  0
    0.0000    0.0000    0.0000 N   0  0  0  0  0  0  0  0  0  0  0  0
    0.0000    0.0000    0.0000 C   0  0  0  0  0  0  0  0  0  0  0  0
    0.0000    0.0000    0.0000 C   0  0  0  0  0  0  0  0  0  0  0  0
    0.0000    0.0000    0.0000 C   0  0  0  0  0  0  0  0  0  0  0  0
    0.0000    0.0000    0.0000 C   0  0  0  0  0  0  0  0  0  0  0  0
    0.0000    0.0000    0.0000 C   0  0  0  0  0  0  0  0  0  0  0  0
    0.0000    0.0000    0.0000 C   0  0  0  0  0  0  0  0  0  0  0  0
    0.0000    0.0000    0.0000 C   0  0  0  0  0  0  0  0  0  0  0  0
    0.0000    0.0000    0.0000 C   0  0  0  0  0  0  0  0  0  0  0  0
    0.0000    0.0000    0.0000 C   0  0  0  0  0  0  0  0  0  0  0  0
    0.0000    0.0000    0.0000 C   0  0  0  0  0  0  0  0  0  0  0  0
    0.0000    0.0000    0.0000 C   0  0  0  0  0  0  0  0  0  0  0  0
    0.0000    0.0000    0.0000 C   0  0  0  0  0  0  0  0  0  0  0  0
  1  2  1  0
  2  3  1  0
  3  4  2  0
  4  5  1  0
  4  6  1  0
  6  7  2  0
  7  8  1  0
  8  9  2  0
  9 10  1  0
  7 11  1  0
 11 12  1  0
 12 13  1  0
 13 14  1  0
 14 15  1  0
 15 16  1  0
 16 17  1  0
 17 18  1  0
 18 19  1  0
 19 20  2  0
 20 21  1  0
 21 22  2  0
 22 23  1  0
 23 24  2  0
 14 25  1  0
 25 26  1  0
  9  3  1  0
 26 11  1  0
 18 16  1  0
 24 19  1  0
M  END
>  <pIC50>  (39) 
6.64

>  <ChEMBL_ID>  (39) 
CHEMBL1202204

>  <document_journal>  (39) 
J. Med. Chem.

>  <bao_endpoint>  (39) 
BAO_0000190

>  <potential_duplicate>  (39) 
False

>  <uo_units>  (39) 
UO_0000065

>  <canonical_smiles>  (39) 
Br.COc1c(Cl)cc(cc1Cl)N2CCN(C[C@H]3C[C@@H]3c4ccccc4)CC2

>  <parent_molecule_chembl_id>  (39) 
CHEMBL337951

>  <assay_type>  (39) 
B

>  <src_id>  (39) 
1

>  <ligand_efficiency>  (39) 
{u'le': u'0.35', u'bei': u'16.97', u'sei': u'42.28', u'lle': u'1.27'}

>  <standard_flag>  (39) 
True

>  <molecule_chembl_id>  (39) 
CHEMBL1202204

>  <target_organism>  (39) 
Homo sapiens

>  <standard_units>  (39) 
nM

>  <record_id>  (39) 
244348

>  <document_chembl_id>  (39) 
CHEMBL1133592

>  <bao_format>  (39) 
BAO_0000357

>  <data_validity_description>  (39) 
None

>  <activity_id>  (39) 
290122

>  <standard_type>  (39) 
IC50

>  <target_chembl_id>  (39) 
CHEMBL217

>  <data_validity_comment>  (39) 
None

>  <published_value>  (39) 
228

>  <document_year>  (39) 
2000

>  <target_pref_name>  (39) 
Dopamine D2 receptor

>  <assay_chembl_id>  (39) 
CHEMBL671074

>  <standard_relation>  (39) 
=

>  <assay_description>  (39) 
Binding affinity to dopamine receptor D2 cloned from human, using [3H]- YM09151 as competitive ligand

>  <published_relation>  (39) 
=

>  <standard_value>  (39) 
228

>  <qudt_units>  (39) 
http://www.openphacts.org/units/Nanomolar

>  <target_tax_id>  (39) 
9606

>  <bao_label>  (39) 
single protein format

>  <published_units>  (39) 
nM

>  <pchembl_value>  (39) 
6.64

>  <published_type>  (39) 
IC50

>  <activity_comment>  (39) 
None

$$$$

     RDKit          

 26 29  0  0  0  0  0  0  0  0999 V2000
    0.0000    0.0000    0.0000 C   0  0  0  0  0  0  0  0  0  0  0  0
    0.0000    0.0000    0.0000 O   0  0  0  0  0  0  0  0  0  0  0  0
    0.0000    0.0000    0.0000 C   0  0  0  0  0  0  0  0  0  0  0  0
    0.0000    0.0000    0.0000 C   0  0  0  0  0  0  0  0  0  0  0  0
    0.0000    0.0000    0.0000 C   0  0  0  0  0  0  0  0  0  0  0  0
    0.0000    0.0000    0.0000 C   0  0  0  0  0  0  0  0  0  0  0  0
    0.0000    0.0000    0.0000 C   0  0  0  0  0  0  0  0  0  0  0  0
    0.0000    0.0000    0.0000 C   0  0  0  0  0  0  0  0  0  0  0  0
    0.0000    0.0000    0.0000 C   0  0  0  0  0  0  0  0  0  0  0  0
    0.0000    0.0000    0.0000 C   0  0  0  0  0  0  0  0  0  0  0  0
    0.0000    0.0000    0.0000 C   0  0  0  0  0  0  0  0  0  0  0  0
    0.0000    0.0000    0.0000 C   0  0  0  0  0  0  0  0  0  0  0  0
    0.0000    0.0000    0.0000 N   0  0  0  0  0  0  0  0  0  0  0  0
    0.0000    0.0000    0.0000 C   0  0  0  0  0  0  0  0  0  0  0  0
    0.0000    0.0000    0.0000 C   0  0  0  0  0  0  0  0  0  0  0  0
    0.0000    0.0000    0.0000 N   0  0  0  0  0  0  0  0  0  0  0  0
    0.0000    0.0000    0.0000 C   0  0  0  0  0  0  0  0  0  0  0  0
    0.0000    0.0000    0.0000 C   0  0  0  0  0  0  0  0  0  0  0  0
    0.0000    0.0000    0.0000 C   0  0  0  0  0  0  0  0  0  0  0  0
    0.0000    0.0000    0.0000 C   0  0  0  0  0  0  0  0  0  0  0  0
    0.0000    0.0000    0.0000 C   0  0  0  0  0  0  0  0  0  0  0  0
    0.0000    0.0000    0.0000 C   0  0  0  0  0  0  0  0  0  0  0  0
    0.0000    0.0000    0.0000 Cl  0  0  0  0  0  0  0  0  0  0  0  0
    0.0000    0.0000    0.0000 C   0  0  0  0  0  0  0  0  0  0  0  0
    0.0000    0.0000    0.0000 C   0  0  0  0  0  0  0  0  0  0  0  0
    0.0000    0.0000    0.0000 Cl  0  0  0  0  0  0  0  0  0  0  0  0
  1  2  1  0
  2  3  1  0
  3  4  2  0
  4  5  1  0
  5  6  2  0
  6  7  1  0
  7  8  2  0
  6  9  1  0
  9 10  1  0
 10 11  1  0
 11 12  1  0
 12 13  1  0
 13 14  1  0
 14 15  1  0
 15 16  1  0
 16 17  1  0
 17 18  1  0
 16 19  1  0
 19 20  2  0
 20 21  1  0
 21 22  2  0
 22 23  1  0
 22 24  1  0
 24 25  2  0
 25 26  1  0
  8  3  1  0
 11  9  1  0
 18 13  1  0
 25 19  1  0
M  END
>  <pIC50>  (40) 
8.16

>  <ChEMBL_ID>  (40) 
CHEMBL1202206

>  <document_journal>  (40) 
J. Med. Chem.

>  <bao_endpoint>  (40) 
BAO_0000190

>  <potential_duplicate>  (40) 
False

>  <uo_units>  (40) 
UO_0000065

>  <canonical_smiles>  (40) 
Br.COc1ccc(cc1)[C@H]2C[C@@H]2CN3CCN(CC3)c4ccc(Cl)cc4Cl

>  <parent_molecule_chembl_id>  (40) 
CHEMBL129556

>  <assay_type>  (40) 
B

>  <src_id>  (40) 
1

>  <ligand_efficiency>  (40) 
{u'le': u'0.43', u'bei': u'20.84', u'sei': u'51.91', u'lle': u'2.78'}

>  <standard_flag>  (40) 
True

>  <molecule_chembl_id>  (40) 
CHEMBL1202206

>  <target_organism>  (40) 
Homo sapiens

>  <standard_units>  (40) 
nM

>  <record_id>  (40) 
244343

>  <document_chembl_id>  (40) 
CHEMBL1133592

>  <bao_format>  (40) 
BAO_0000357

>  <data_validity_description>  (40) 
None

>  <activity_id>  (40) 
292549

>  <standard_type>  (40) 
IC50

>  <target_chembl_id>  (40) 
CHEMBL217

>  <data_validity_comment>  (40) 
None

>  <published_value>  (40) 
7

>  <document_year>  (40) 
2000

>  <target_pref_name>  (40) 
Dopamine D2 receptor

>  <assay_chembl_id>  (40) 
CHEMBL671074

>  <standard_relation>  (40) 
=

>  <assay_description>  (40) 
Binding affinity to dopamine receptor D2 cloned from human, using [3H]- YM09151 as competitive ligand

>  <published_relation>  (40) 
=

>  <standard_value>  (40) 
7

>  <qudt_units>  (40) 
http://www.openphacts.org/units/Nanomolar

>  <target_tax_id>  (40) 
9606

>  <bao_label>  (40) 
single protein format

>  <published_units>  (40) 
nM

>  <pchembl_value>  (40) 
8.16

>  <published_type>  (40) 
IC50

>  <activity_comment>  (40) 
None

$$$$

     RDKit          

 24 27  0  0  0  0  0  0  0  0999 V2000
    0.0000    0.0000    0.0000 C   0  0  0  0  0  0  0  0  0  0  0  0
    0.0000    0.0000    0.0000 C   0  0  0  0  0  0  0  0  0  0  0  0
    0.0000    0.0000    0.0000 C   0  0  0  0  0  0  0  0  0  0  0  0
    0.0000    0.0000    0.0000 C   0  0  0  0  0  0  0  0  0  0  0  0
    0.0000    0.0000    0.0000 C   0  0  0  0  0  0  0  0  0  0  0  0
    0.0000    0.0000    0.0000 N   0  0  0  0  0  0  0  0  0  0  0  0
    0.0000    0.0000    0.0000 C   0  0  0  0  0  0  0  0  0  0  0  0
    0.0000    0.0000    0.0000 C   0  0  0  0  0  0  0  0  0  0  0  0
    0.0000    0.0000    0.0000 N   0  0  0  0  0  0  0  0  0  0  0  0
    0.0000    0.0000    0.0000 C   0  0  0  0  0  0  0  0  0  0  0  0
    0.0000    0.0000    0.0000 C   0  0  0  0  0  0  0  0  0  0  0  0
    0.0000    0.0000    0.0000 C   0  0  0  0  0  0  0  0  0  0  0  0
    0.0000    0.0000    0.0000 C   0  0  0  0  0  0  0  0  0  0  0  0
    0.0000    0.0000    0.0000 C   0  0  0  0  0  0  0  0  0  0  0  0
    0.0000    0.0000    0.0000 C   0  0  0  0  0  0  0  0  0  0  0  0
    0.0000    0.0000    0.0000 C   0  0  0  0  0  0  0  0  0  0  0  0
    0.0000    0.0000    0.0000 C   0  0  0  0  0  0  0  0  0  0  0  0
    0.0000    0.0000    0.0000 C   0  0  0  0  0  0  0  0  0  0  0  0
    0.0000    0.0000    0.0000 C   0  0  0  0  0  0  0  0  0  0  0  0
    0.0000    0.0000    0.0000 C   0  0  0  0  0  0  0  0  0  0  0  0
    0.0000    0.0000    0.0000 C   0  0  0  0  0  0  0  0  0  0  0  0
    0.0000    0.0000    0.0000 C   0  0  0  0  0  0  0  0  0  0  0  0
    0.0000    0.0000    0.0000 C   0  0  0  0  0  0  0  0  0  0  0  0
    0.0000    0.0000    0.0000 C   0  0  0  0  0  0  0  0  0  0  0  0
  1  2  1  0
  2  3  2  0
  3  4  1  0
  4  5  2  0
  5  6  1  0
  6  7  1  0
  7  8  1  0
  8  9  1  0
  9 10  1  0
 10 11  1  0
 11 12  1  0
 12 13  1  0
 13 14  1  0
 14 15  2  0
 15 16  1  0
 16 17  2  0
 17 18  1  0
 18 19  2  0
  9 20  1  0
 20 21  1  0
  5 22  1  0
 22 23  1  0
 22 24  2  0
 24  2  1  0
 21  6  1  0
 13 11  1  0
 19 14  1  0
M  END
>  <pIC50>  (41) 
7.14

>  <ChEMBL_ID>  (41) 
CHEMBL1202208

>  <document_journal>  (41) 
J. Med. Chem.

>  <bao_endpoint>  (41) 
BAO_0000190

>  <potential_duplicate>  (41) 
False

>  <uo_units>  (41) 
UO_0000065

>  <canonical_smiles>  (41) 
Br.Cc1ccc(N2CCN(C[C@@H]3C[C@H]3c4ccccc4)CC2)c(C)c1

>  <parent_molecule_chembl_id>  (41) 
CHEMBL126493

>  <assay_type>  (41) 
B

>  <src_id>  (41) 
1

>  <ligand_efficiency>  (41) 
{u'le': u'0.41', u'bei': u'22.27', u'sei': u'110.13', u'lle': u'2.11'}

>  <standard_flag>  (41) 
True

>  <molecule_chembl_id>  (41) 
CHEMBL1202208

>  <target_organism>  (41) 
Homo sapiens

>  <standard_units>  (41) 
nM

>  <record_id>  (41) 
244350

>  <document_chembl_id>  (41) 
CHEMBL1133592

>  <bao_format>  (41) 
BAO_0000357

>  <data_validity_description>  (41) 
None

>  <activity_id>  (41) 
293714

>  <standard_type>  (41) 
IC50

>  <target_chembl_id>  (41) 
CHEMBL217

>  <data_validity_comment>  (41) 
None

>  <published_value>  (41) 
73

>  <document_year>  (41) 
2000

>  <target_pref_name>  (41) 
Dopamine D2 receptor

>  <assay_chembl_id>  (41) 
CHEMBL671074

>  <standard_relation>  (41) 
=

>  <assay_description>  (41) 
Binding affinity to dopamine receptor D2 cloned from human, using [3H]- YM09151 as competitive ligand

>  <published_relation>  (41) 
=

>  <standard_value>  (41) 
73

>  <qudt_units>  (41) 
http://www.openphacts.org/units/Nanomolar

>  <target_tax_id>  (41) 
9606

>  <bao_label>  (41) 
single protein format

>  <published_units>  (41) 
nM

>  <pchembl_value>  (41) 
7.14

>  <published_type>  (41) 
IC50

>  <activity_comment>  (41) 
None

$$$$

     RDKit          

 24 27  0  0  0  0  0  0  0  0999 V2000
    0.0000    0.0000    0.0000 C   0  0  0  0  0  0  0  0  0  0  0  0
    0.0000    0.0000    0.0000 C   0  0  0  0  0  0  0  0  0  0  0  0
    0.0000    0.0000    0.0000 C   0  0  0  0  0  0  0  0  0  0  0  0
    0.0000    0.0000    0.0000 C   0  0  0  0  0  0  0  0  0  0  0  0
    0.0000    0.0000    0.0000 C   0  0  0  0  0  0  0  0  0  0  0  0
    0.0000    0.0000    0.0000 N   0  0  0  0  0  0  0  0  0  0  0  0
    0.0000    0.0000    0.0000 C   0  0  0  0  0  0  0  0  0  0  0  0
    0.0000    0.0000    0.0000 C   0  0  0  0  0  0  0  0  0  0  0  0
    0.0000    0.0000    0.0000 N   0  0  0  0  0  0  0  0  0  0  0  0
    0.0000    0.0000    0.0000 C   0  0  0  0  0  0  0  0  0  0  0  0
    0.0000    0.0000    0.0000 C   0  0  0  0  0  0  0  0  0  0  0  0
    0.0000    0.0000    0.0000 C   0  0  0  0  0  0  0  0  0  0  0  0
    0.0000    0.0000    0.0000 C   0  0  0  0  0  0  0  0  0  0  0  0
    0.0000    0.0000    0.0000 C   0  0  0  0  0  0  0  0  0  0  0  0
    0.0000    0.0000    0.0000 C   0  0  0  0  0  0  0  0  0  0  0  0
    0.0000    0.0000    0.0000 C   0  0  0  0  0  0  0  0  0  0  0  0
    0.0000    0.0000    0.0000 C   0  0  0  0  0  0  0  0  0  0  0  0
    0.0000    0.0000    0.0000 C   0  0  0  0  0  0  0  0  0  0  0  0
    0.0000    0.0000    0.0000 C   0  0  0  0  0  0  0  0  0  0  0  0
    0.0000    0.0000    0.0000 C   0  0  0  0  0  0  0  0  0  0  0  0
    0.0000    0.0000    0.0000 C   0  0  0  0  0  0  0  0  0  0  0  0
    0.0000    0.0000    0.0000 C   0  0  0  0  0  0  0  0  0  0  0  0
    0.0000    0.0000    0.0000 C   0  0  0  0  0  0  0  0  0  0  0  0
    0.0000    0.0000    0.0000 C   0  0  0  0  0  0  0  0  0  0  0  0
  1  2  1  0
  2  3  2  0
  3  4  1  0
  4  5  2  0
  5  6  1  0
  6  7  1  0
  7  8  1  0
  8  9  1  0
  9 10  1  0
 10 11  1  0
 11 12  1  0
 12 13  1  0
 13 14  1  0
 14 15  2  0
 15 16  1  0
 16 17  2  0
 17 18  1  0
 18 19  2  0
  9 20  1  0
 20 21  1  0
  5 22  1  0
 22 23  1  0
 22 24  2  0
 24  2  1  0
 21  6  1  0
 13 11  1  0
 19 14  1  0
M  END
>  <pIC50>  (42) 
7.35

>  <ChEMBL_ID>  (42) 
CHEMBL1204119

>  <document_journal>  (42) 
J. Med. Chem.

>  <bao_endpoint>  (42) 
BAO_0000190

>  <potential_duplicate>  (42) 
False

>  <uo_units>  (42) 
UO_0000065

>  <canonical_smiles>  (42) 
Br.Cc1ccc(N2CCN(C[C@H]3C[C@@H]3c4ccccc4)CC2)c(C)c1

>  <parent_molecule_chembl_id>  (42) 
CHEMBL338337

>  <assay_type>  (42) 
B

>  <src_id>  (42) 
1

>  <ligand_efficiency>  (42) 
{u'le': u'0.42', u'bei': u'22.93', u'sei': u'113.38', u'lle': u'2.32'}

>  <standard_flag>  (42) 
True

>  <molecule_chembl_id>  (42) 
CHEMBL1204119

>  <target_organism>  (42) 
Homo sapiens

>  <standard_units>  (42) 
nM

>  <record_id>  (42) 
244351

>  <document_chembl_id>  (42) 
CHEMBL1133592

>  <bao_format>  (42) 
BAO_0000357

>  <data_validity_description>  (42) 
None

>  <activity_id>  (42) 
296390

>  <standard_type>  (42) 
IC50

>  <target_chembl_id>  (42) 
CHEMBL217

>  <data_validity_comment>  (42) 
None

>  <published_value>  (42) 
45

>  <document_year>  (42) 
2000

>  <target_pref_name>  (42) 
Dopamine D2 receptor

>  <assay_chembl_id>  (42) 
CHEMBL671074

>  <standard_relation>  (42) 
=

>  <assay_description>  (42) 
Binding affinity to dopamine receptor D2 cloned from human, using [3H]- YM09151 as competitive ligand

>  <published_relation>  (42) 
=

>  <standard_value>  (42) 
45

>  <qudt_units>  (42) 
http://www.openphacts.org/units/Nanomolar

>  <target_tax_id>  (42) 
9606

>  <bao_label>  (42) 
single protein format

>  <published_units>  (42) 
nM

>  <pchembl_value>  (42) 
7.35

>  <published_type>  (42) 
IC50

>  <activity_comment>  (42) 
None

$$$$

     RDKit          

 25 28  0  0  0  0  0  0  0  0999 V2000
    0.0000    0.0000    0.0000 C   0  0  0  0  0  0  0  0  0  0  0  0
    0.0000    0.0000    0.0000 O   0  0  0  0  0  0  0  0  0  0  0  0
    0.0000    0.0000    0.0000 C   0  0  0  0  0  0  0  0  0  0  0  0
    0.0000    0.0000    0.0000 C   0  0  0  0  0  0  0  0  0  0  0  0
    0.0000    0.0000    0.0000 C   0  0  0  0  0  0  0  0  0  0  0  0
    0.0000    0.0000    0.0000 C   0  0  0  0  0  0  0  0  0  0  0  0
    0.0000    0.0000    0.0000 Cl  0  0  0  0  0  0  0  0  0  0  0  0
    0.0000    0.0000    0.0000 C   0  0  0  0  0  0  0  0  0  0  0  0
    0.0000    0.0000    0.0000 C   0  0  0  0  0  0  0  0  0  0  0  0
    0.0000    0.0000    0.0000 N   0  0  0  0  0  0  0  0  0  0  0  0
    0.0000    0.0000    0.0000 C   0  0  0  0  0  0  0  0  0  0  0  0
    0.0000    0.0000    0.0000 C   0  0  0  0  0  0  0  0  0  0  0  0
    0.0000    0.0000    0.0000 N   0  0  0  0  0  0  0  0  0  0  0  0
    0.0000    0.0000    0.0000 C   0  0  0  0  0  0  0  0  0  0  0  0
    0.0000    0.0000    0.0000 C   0  0  0  0  0  0  0  0  0  0  0  0
    0.0000    0.0000    0.0000 C   0  0  0  0  0  0  0  0  0  0  0  0
    0.0000    0.0000    0.0000 C   0  0  0  0  0  0  0  0  0  0  0  0
    0.0000    0.0000    0.0000 C   0  0  0  0  0  0  0  0  0  0  0  0
    0.0000    0.0000    0.0000 C   0  0  0  0  0  0  0  0  0  0  0  0
    0.0000    0.0000    0.0000 C   0  0  0  0  0  0  0  0  0  0  0  0
    0.0000    0.0000    0.0000 C   0  0  0  0  0  0  0  0  0  0  0  0
    0.0000    0.0000    0.0000 C   0  0  0  0  0  0  0  0  0  0  0  0
    0.0000    0.0000    0.0000 C   0  0  0  0  0  0  0  0  0  0  0  0
    0.0000    0.0000    0.0000 C   0  0  0  0  0  0  0  0  0  0  0  0
    0.0000    0.0000    0.0000 C   0  0  0  0  0  0  0  0  0  0  0  0
  1  2  1  0
  2  3  1  0
  3  4  2  0
  4  5  1  0
  5  6  2  0
  6  7  1  0
  6  8  1  0
  8  9  2  0
  9 10  1  0
 10 11  1  0
 11 12  1  0
 12 13  1  0
 13 14  1  0
 14 15  1  0
 15 16  1  0
 16 17  1  0
 17 18  1  0
 18 19  2  0
 19 20  1  0
 20 21  2  0
 21 22  1  0
 22 23  2  0
 13 24  1  0
 24 25  1  0
  9  3  1  0
 25 10  1  0
 17 15  1  0
 23 18  1  0
M  END
>  <pIC50>  (43) 
8.3

>  <ChEMBL_ID>  (43) 
CHEMBL1202205

>  <document_journal>  (43) 
J. Med. Chem.

>  <bao_endpoint>  (43) 
BAO_0000190

>  <potential_duplicate>  (43) 
False

>  <uo_units>  (43) 
UO_0000065

>  <canonical_smiles>  (43) 
Br.COc1ccc(Cl)cc1N2CCN(C[C@H]3C[C@@H]3c4ccccc4)CC2

>  <parent_molecule_chembl_id>  (43) 
CHEMBL126604

>  <assay_type>  (43) 
B

>  <src_id>  (43) 
1

>  <ligand_efficiency>  (43) 
{u'le': u'0.45', u'bei': u'23.26', u'sei': u'52.84', u'lle': u'3.6'}

>  <standard_flag>  (43) 
True

>  <molecule_chembl_id>  (43) 
CHEMBL1202205

>  <target_organism>  (43) 
Homo sapiens

>  <standard_units>  (43) 
nM

>  <record_id>  (43) 
244349

>  <document_chembl_id>  (43) 
CHEMBL1133592

>  <bao_format>  (43) 
BAO_0000357

>  <data_validity_description>  (43) 
None

>  <activity_id>  (43) 
297672

>  <standard_type>  (43) 
IC50

>  <target_chembl_id>  (43) 
CHEMBL217

>  <data_validity_comment>  (43) 
None

>  <published_value>  (43) 
5

>  <document_year>  (43) 
2000

>  <target_pref_name>  (43) 
Dopamine D2 receptor

>  <assay_chembl_id>  (43) 
CHEMBL671074

>  <standard_relation>  (43) 
=

>  <assay_description>  (43) 
Binding affinity to dopamine receptor D2 cloned from human, using [3H]- YM09151 as competitive ligand

>  <published_relation>  (43) 
=

>  <standard_value>  (43) 
5

>  <qudt_units>  (43) 
http://www.openphacts.org/units/Nanomolar

>  <target_tax_id>  (43) 
9606

>  <bao_label>  (43) 
single protein format

>  <published_units>  (43) 
nM

>  <pchembl_value>  (43) 
8.3

>  <published_type>  (43) 
IC50

>  <activity_comment>  (43) 
None

$$$$

     RDKit          

 24 27  0  0  0  0  0  0  0  0999 V2000
    0.0000    0.0000    0.0000 C   0  0  0  0  0  0  0  0  0  0  0  0
    0.0000    0.0000    0.0000 O   0  0  0  0  0  0  0  0  0  0  0  0
    0.0000    0.0000    0.0000 C   0  0  0  0  0  0  0  0  0  0  0  0
    0.0000    0.0000    0.0000 C   0  0  0  0  0  0  0  0  0  0  0  0
    0.0000    0.0000    0.0000 C   0  0  0  0  0  0  0  0  0  0  0  0
    0.0000    0.0000    0.0000 C   0  0  0  0  0  0  0  0  0  0  0  0
    0.0000    0.0000    0.0000 C   0  0  0  0  0  0  0  0  0  0  0  0
    0.0000    0.0000    0.0000 C   0  0  0  0  0  0  0  0  0  0  0  0
    0.0000    0.0000    0.0000 N   0  0  0  0  0  0  0  0  0  0  0  0
    0.0000    0.0000    0.0000 C   0  0  0  0  0  0  0  0  0  0  0  0
    0.0000    0.0000    0.0000 C   0  0  0  0  0  0  0  0  0  0  0  0
    0.0000    0.0000    0.0000 N   0  0  0  0  0  0  0  0  0  0  0  0
    0.0000    0.0000    0.0000 C   0  0  0  0  0  0  0  0  0  0  0  0
    0.0000    0.0000    0.0000 C   0  0  0  0  0  0  0  0  0  0  0  0
    0.0000    0.0000    0.0000 C   0  0  0  0  0  0  0  0  0  0  0  0
    0.0000    0.0000    0.0000 C   0  0  0  0  0  0  0  0  0  0  0  0
    0.0000    0.0000    0.0000 C   0  0  0  0  0  0  0  0  0  0  0  0
    0.0000    0.0000    0.0000 C   0  0  0  0  0  0  0  0  0  0  0  0
    0.0000    0.0000    0.0000 C   0  0  0  0  0  0  0  0  0  0  0  0
    0.0000    0.0000    0.0000 C   0  0  0  0  0  0  0  0  0  0  0  0
    0.0000    0.0000    0.0000 C   0  0  0  0  0  0  0  0  0  0  0  0
    0.0000    0.0000    0.0000 C   0  0  0  0  0  0  0  0  0  0  0  0
    0.0000    0.0000    0.0000 C   0  0  0  0  0  0  0  0  0  0  0  0
    0.0000    0.0000    0.0000 C   0  0  0  0  0  0  0  0  0  0  0  0
  1  2  1  0
  2  3  1  0
  3  4  2  0
  4  5  1  0
  5  6  2  0
  6  7  1  0
  7  8  2  0
  6  9  1  0
  9 10  1  0
 10 11  1  0
 11 12  1  0
 12 13  1  0
 13 14  1  0
 14 15  1  0
 15 16  1  0
 16 17  1  0
 17 18  2  0
 18 19  1  0
 19 20  2  0
 20 21  1  0
 21 22  2  0
 12 23  1  0
 23 24  1  0
  8  3  1  0
 24  9  1  0
 16 14  1  0
 22 17  1  0
M  END
>  <pIC50>  (44) 
6.12

>  <ChEMBL_ID>  (44) 
CHEMBL1202224

>  <document_journal>  (44) 
J. Med. Chem.

>  <bao_endpoint>  (44) 
BAO_0000190

>  <potential_duplicate>  (44) 
False

>  <uo_units>  (44) 
UO_0000065

>  <canonical_smiles>  (44) 
Br.COc1ccc(cc1)N2CCN(C[C@H]3C[C@@H]3c4ccccc4)CC2

>  <parent_molecule_chembl_id>  (44) 
CHEMBL337983

>  <assay_type>  (44) 
B

>  <src_id>  (44) 
1

>  <ligand_efficiency>  (44) 
{u'le': u'0.35', u'bei': u'18.99', u'sei': u'38.98', u'lle': u'2.08'}

>  <standard_flag>  (44) 
True

>  <molecule_chembl_id>  (44) 
CHEMBL1202224

>  <target_organism>  (44) 
Homo sapiens

>  <standard_units>  (44) 
nM

>  <record_id>  (44) 
244336

>  <document_chembl_id>  (44) 
CHEMBL1133592

>  <bao_format>  (44) 
BAO_0000357

>  <data_validity_description>  (44) 
None

>  <activity_id>  (44) 
300303

>  <standard_type>  (44) 
IC50

>  <target_chembl_id>  (44) 
CHEMBL217

>  <data_validity_comment>  (44) 
None

>  <published_value>  (44) 
752

>  <document_year>  (44) 
2000

>  <target_pref_name>  (44) 
Dopamine D2 receptor

>  <assay_chembl_id>  (44) 
CHEMBL671074

>  <standard_relation>  (44) 
=

>  <assay_description>  (44) 
Binding affinity to dopamine receptor D2 cloned from human, using [3H]- YM09151 as competitive ligand

>  <published_relation>  (44) 
=

>  <standard_value>  (44) 
752

>  <qudt_units>  (44) 
http://www.openphacts.org/units/Nanomolar

>  <target_tax_id>  (44) 
9606

>  <bao_label>  (44) 
single protein format

>  <published_units>  (44) 
nM

>  <pchembl_value>  (44) 
6.12

>  <published_type>  (44) 
IC50

>  <activity_comment>  (44) 
None

$$$$

     RDKit          

 24 27  0  0  0  0  0  0  0  0999 V2000
    0.0000    0.0000    0.0000 Cl  0  0  0  0  0  0  0  0  0  0  0  0
    0.0000    0.0000    0.0000 C   0  0  0  0  0  0  0  0  0  0  0  0
    0.0000    0.0000    0.0000 C   0  0  0  0  0  0  0  0  0  0  0  0
    0.0000    0.0000    0.0000 C   0  0  0  0  0  0  0  0  0  0  0  0
    0.0000    0.0000    0.0000 Cl  0  0  0  0  0  0  0  0  0  0  0  0
    0.0000    0.0000    0.0000 C   0  0  0  0  0  0  0  0  0  0  0  0
    0.0000    0.0000    0.0000 C   0  0  0  0  0  0  0  0  0  0  0  0
    0.0000    0.0000    0.0000 C   0  0  0  0  0  0  0  0  0  0  0  0
    0.0000    0.0000    0.0000 N   0  0  0  0  0  0  0  0  0  0  0  0
    0.0000    0.0000    0.0000 C   0  0  0  0  0  0  0  0  0  0  0  0
    0.0000    0.0000    0.0000 C   0  0  0  0  0  0  0  0  0  0  0  0
    0.0000    0.0000    0.0000 N   0  0  0  0  0  0  0  0  0  0  0  0
    0.0000    0.0000    0.0000 C   0  0  0  0  0  0  0  0  0  0  0  0
    0.0000    0.0000    0.0000 C   0  0  0  0  0  0  0  0  0  0  0  0
    0.0000    0.0000    0.0000 C   0  0  0  0  0  0  0  0  0  0  0  0
    0.0000    0.0000    0.0000 C   0  0  0  0  0  0  0  0  0  0  0  0
    0.0000    0.0000    0.0000 C   0  0  0  0  0  0  0  0  0  0  0  0
    0.0000    0.0000    0.0000 C   0  0  0  0  0  0  0  0  0  0  0  0
    0.0000    0.0000    0.0000 C   0  0  0  0  0  0  0  0  0  0  0  0
    0.0000    0.0000    0.0000 C   0  0  0  0  0  0  0  0  0  0  0  0
    0.0000    0.0000    0.0000 C   0  0  0  0  0  0  0  0  0  0  0  0
    0.0000    0.0000    0.0000 C   0  0  0  0  0  0  0  0  0  0  0  0
    0.0000    0.0000    0.0000 C   0  0  0  0  0  0  0  0  0  0  0  0
    0.0000    0.0000    0.0000 C   0  0  0  0  0  0  0  0  0  0  0  0
  1  2  1  0
  2  3  2  0
  3  4  1  0
  4  5  1  0
  4  6  2  0
  6  7  1  0
  7  8  2  0
  7  9  1  0
  9 10  1  0
 10 11  1  0
 11 12  1  0
 12 13  1  0
 13 14  1  0
 14 15  1  0
 15 16  1  0
 16 17  1  0
 17 18  2  0
 18 19  1  0
 19 20  2  0
 20 21  1  0
 21 22  2  0
 12 23  1  0
 23 24  1  0
  8  2  1  0
 24  9  1  0
 16 14  1  0
 22 17  1  0
M  END
>  <pIC50>  (45) 
7.5

>  <ChEMBL_ID>  (45) 
CHEMBL1202225

>  <document_journal>  (45) 
J. Med. Chem.

>  <bao_endpoint>  (45) 
BAO_0000190

>  <potential_duplicate>  (45) 
False

>  <uo_units>  (45) 
UO_0000065

>  <canonical_smiles>  (45) 
Br.Clc1cc(Cl)cc(c1)N2CCN(C[C@H]3C[C@@H]3c4ccccc4)CC2

>  <parent_molecule_chembl_id>  (45) 
CHEMBL129324

>  <assay_type>  (45) 
B

>  <src_id>  (45) 
1

>  <ligand_efficiency>  (45) 
{u'le': u'0.43', u'bei': u'20.74', u'sei': u'115.66', u'lle': u'2.11'}

>  <standard_flag>  (45) 
True

>  <molecule_chembl_id>  (45) 
CHEMBL1202225

>  <target_organism>  (45) 
Homo sapiens

>  <standard_units>  (45) 
nM

>  <record_id>  (45) 
244337

>  <document_chembl_id>  (45) 
CHEMBL1133592

>  <bao_format>  (45) 
BAO_0000357

>  <data_validity_description>  (45) 
None

>  <activity_id>  (45) 
300306

>  <standard_type>  (45) 
IC50

>  <target_chembl_id>  (45) 
CHEMBL217

>  <data_validity_comment>  (45) 
None

>  <published_value>  (45) 
32

>  <document_year>  (45) 
2000

>  <target_pref_name>  (45) 
Dopamine D2 receptor

>  <assay_chembl_id>  (45) 
CHEMBL671074

>  <standard_relation>  (45) 
=

>  <assay_description>  (45) 
Binding affinity to dopamine receptor D2 cloned from human, using [3H]- YM09151 as competitive ligand

>  <published_relation>  (45) 
=

>  <standard_value>  (45) 
32

>  <qudt_units>  (45) 
http://www.openphacts.org/units/Nanomolar

>  <target_tax_id>  (45) 
9606

>  <bao_label>  (45) 
single protein format

>  <published_units>  (45) 
nM

>  <pchembl_value>  (45) 
7.5

>  <published_type>  (45) 
IC50

>  <activity_comment>  (45) 
None

$$$$

     RDKit          

 24 27  0  0  0  0  0  0  0  0999 V2000
    0.0000    0.0000    0.0000 F   0  0  0  0  0  0  0  0  0  0  0  0
    0.0000    0.0000    0.0000 C   0  0  0  0  0  0  0  0  0  0  0  0
    0.0000    0.0000    0.0000 C   0  0  0  0  0  0  0  0  0  0  0  0
    0.0000    0.0000    0.0000 C   0  0  0  0  0  0  0  0  0  0  0  0
    0.0000    0.0000    0.0000 C   0  0  0  0  0  0  0  0  0  0  0  0
    0.0000    0.0000    0.0000 C   0  0  0  0  0  0  0  0  0  0  0  0
    0.0000    0.0000    0.0000 C   0  0  0  0  0  0  0  0  0  0  0  0
    0.0000    0.0000    0.0000 C   0  0  0  0  0  0  0  0  0  0  0  0
    0.0000    0.0000    0.0000 C   0  0  0  0  0  0  0  0  0  0  0  0
    0.0000    0.0000    0.0000 C   0  0  0  0  0  0  0  0  0  0  0  0
    0.0000    0.0000    0.0000 C   0  0  0  0  0  0  0  0  0  0  0  0
    0.0000    0.0000    0.0000 N   0  0  0  0  0  0  0  0  0  0  0  0
    0.0000    0.0000    0.0000 C   0  0  0  0  0  0  0  0  0  0  0  0
    0.0000    0.0000    0.0000 C   0  0  0  0  0  0  0  0  0  0  0  0
    0.0000    0.0000    0.0000 N   0  0  0  0  0  0  0  0  0  0  0  0
    0.0000    0.0000    0.0000 C   0  0  0  0  0  0  0  0  0  0  0  0
    0.0000    0.0000    0.0000 C   0  0  0  0  0  0  0  0  0  0  0  0
    0.0000    0.0000    0.0000 C   0  0  0  0  0  0  0  0  0  0  0  0
    0.0000    0.0000    0.0000 C   0  0  0  0  0  0  0  0  0  0  0  0
    0.0000    0.0000    0.0000 C   0  0  0  0  0  0  0  0  0  0  0  0
    0.0000    0.0000    0.0000 C   0  0  0  0  0  0  0  0  0  0  0  0
    0.0000    0.0000    0.0000 C   0  0  0  0  0  0  0  0  0  0  0  0
    0.0000    0.0000    0.0000 Cl  0  0  0  0  0  0  0  0  0  0  0  0
    0.0000    0.0000    0.0000 C   0  0  0  0  0  0  0  0  0  0  0  0
  1  2  1  0
  2  3  2  0
  3  4  1  0
  4  5  2  0
  5  6  1  0
  6  7  2  0
  5  8  1  0
  8  9  1  0
  9 10  1  0
 10 11  1  0
 11 12  1  0
 12 13  1  0
 13 14  1  0
 14 15  1  0
 15 16  1  0
 16 17  1  0
 15 18  1  0
 18 19  2  0
 19 20  1  0
 20 21  2  0
 21 22  1  0
 22 23  1  0
 22 24  2  0
  7  2  1  0
 10  8  1  0
 17 12  1  0
 24 18  1  0
M  END
>  <pIC50>  (46) 
7.25

>  <ChEMBL_ID>  (46) 
CHEMBL1202223

>  <document_journal>  (46) 
J. Med. Chem.

>  <bao_endpoint>  (46) 
BAO_0000190

>  <potential_duplicate>  (46) 
False

>  <uo_units>  (46) 
UO_0000065

>  <canonical_smiles>  (46) 
Br.Fc1ccc(cc1)[C@H]2C[C@@H]2CN3CCN(CC3)c4cccc(Cl)c4

>  <parent_molecule_chembl_id>  (46) 
CHEMBL126793

>  <assay_type>  (46) 
B

>  <src_id>  (46) 
1

>  <ligand_efficiency>  (46) 
{u'le': u'0.41', u'bei': u'21.03', u'sei': u'111.91', u'lle': u'2.33'}

>  <standard_flag>  (46) 
True

>  <molecule_chembl_id>  (46) 
CHEMBL1202223

>  <target_organism>  (46) 
Homo sapiens

>  <standard_units>  (46) 
nM

>  <record_id>  (46) 
244340

>  <document_chembl_id>  (46) 
CHEMBL1133592

>  <bao_format>  (46) 
BAO_0000357

>  <data_validity_description>  (46) 
None

>  <activity_id>  (46) 
300309

>  <standard_type>  (46) 
IC50

>  <target_chembl_id>  (46) 
CHEMBL217

>  <data_validity_comment>  (46) 
None

>  <published_value>  (46) 
56

>  <document_year>  (46) 
2000

>  <target_pref_name>  (46) 
Dopamine D2 receptor

>  <assay_chembl_id>  (46) 
CHEMBL671074

>  <standard_relation>  (46) 
=

>  <assay_description>  (46) 
Binding affinity to dopamine receptor D2 cloned from human, using [3H]- YM09151 as competitive ligand

>  <published_relation>  (46) 
=

>  <standard_value>  (46) 
56

>  <qudt_units>  (46) 
http://www.openphacts.org/units/Nanomolar

>  <target_tax_id>  (46) 
9606

>  <bao_label>  (46) 
single protein format

>  <published_units>  (46) 
nM

>  <pchembl_value>  (46) 
7.25

>  <published_type>  (46) 
IC50

>  <activity_comment>  (46) 
None

$$$$

     RDKit          

 25 28  0  0  0  0  0  0  0  0999 V2000
    0.0000    0.0000    0.0000 C   0  0  0  0  0  0  0  0  0  0  0  0
    0.0000    0.0000    0.0000 O   0  0  0  0  0  0  0  0  0  0  0  0
    0.0000    0.0000    0.0000 C   0  0  0  0  0  0  0  0  0  0  0  0
    0.0000    0.0000    0.0000 C   0  0  0  0  0  0  0  0  0  0  0  0
    0.0000    0.0000    0.0000 C   0  0  0  0  0  0  0  0  0  0  0  0
    0.0000    0.0000    0.0000 F   0  0  0  0  0  0  0  0  0  0  0  0
    0.0000    0.0000    0.0000 C   0  0  0  0  0  0  0  0  0  0  0  0
    0.0000    0.0000    0.0000 C   0  0  0  0  0  0  0  0  0  0  0  0
    0.0000    0.0000    0.0000 C   0  0  0  0  0  0  0  0  0  0  0  0
    0.0000    0.0000    0.0000 N   0  0  0  0  0  0  0  0  0  0  0  0
    0.0000    0.0000    0.0000 C   0  0  0  0  0  0  0  0  0  0  0  0
    0.0000    0.0000    0.0000 C   0  0  0  0  0  0  0  0  0  0  0  0
    0.0000    0.0000    0.0000 N   0  0  0  0  0  0  0  0  0  0  0  0
    0.0000    0.0000    0.0000 C   0  0  0  0  0  0  0  0  0  0  0  0
    0.0000    0.0000    0.0000 C   0  0  0  0  0  0  0  0  0  0  0  0
    0.0000    0.0000    0.0000 C   0  0  0  0  0  0  0  0  0  0  0  0
    0.0000    0.0000    0.0000 C   0  0  0  0  0  0  0  0  0  0  0  0
    0.0000    0.0000    0.0000 C   0  0  0  0  0  0  0  0  0  0  0  0
    0.0000    0.0000    0.0000 C   0  0  0  0  0  0  0  0  0  0  0  0
    0.0000    0.0000    0.0000 C   0  0  0  0  0  0  0  0  0  0  0  0
    0.0000    0.0000    0.0000 C   0  0  0  0  0  0  0  0  0  0  0  0
    0.0000    0.0000    0.0000 C   0  0  0  0  0  0  0  0  0  0  0  0
    0.0000    0.0000    0.0000 C   0  0  0  0  0  0  0  0  0  0  0  0
    0.0000    0.0000    0.0000 C   0  0  0  0  0  0  0  0  0  0  0  0
    0.0000    0.0000    0.0000 C   0  0  0  0  0  0  0  0  0  0  0  0
  1  2  1  0
  2  3  1  0
  3  4  2  0
  4  5  1  0
  5  6  1  0
  5  7  2  0
  7  8  1  0
  8  9  2  0
  9 10  1  0
 10 11  1  0
 11 12  1  0
 12 13  1  0
 13 14  1  0
 14 15  1  0
 15 16  1  0
 16 17  1  0
 17 18  1  0
 18 19  2  0
 19 20  1  0
 20 21  2  0
 21 22  1  0
 22 23  2  0
 13 24  1  0
 24 25  1  0
  9  3  1  0
 25 10  1  0
 17 15  1  0
 23 18  1  0
M  END
>  <pIC50>  (47) 
8.0

>  <ChEMBL_ID>  (47) 
CHEMBL1202214

>  <document_journal>  (47) 
J. Med. Chem.

>  <bao_endpoint>  (47) 
BAO_0000190

>  <potential_duplicate>  (47) 
False

>  <uo_units>  (47) 
UO_0000065

>  <canonical_smiles>  (47) 
Br.Br.COc1cc(F)ccc1N2CCN(C[C@H]3C[C@@H]3c4ccccc4)CC2

>  <parent_molecule_chembl_id>  (47) 
CHEMBL126269

>  <assay_type>  (47) 
B

>  <src_id>  (47) 
1

>  <ligand_efficiency>  (47) 
{u'le': u'0.44', u'bei': u'23.5', u'sei': u'50.92', u'lle': u'3.76'}

>  <standard_flag>  (47) 
True

>  <molecule_chembl_id>  (47) 
CHEMBL1202214

>  <target_organism>  (47) 
Homo sapiens

>  <standard_units>  (47) 
nM

>  <record_id>  (47) 
244357

>  <document_chembl_id>  (47) 
CHEMBL1133592

>  <bao_format>  (47) 
BAO_0000357

>  <data_validity_description>  (47) 
None

>  <activity_id>  (47) 
303809

>  <standard_type>  (47) 
IC50

>  <target_chembl_id>  (47) 
CHEMBL217

>  <data_validity_comment>  (47) 
None

>  <published_value>  (47) 
10

>  <document_year>  (47) 
2000

>  <target_pref_name>  (47) 
Dopamine D2 receptor

>  <assay_chembl_id>  (47) 
CHEMBL671074

>  <standard_relation>  (47) 
=

>  <assay_description>  (47) 
Binding affinity to dopamine receptor D2 cloned from human, using [3H]- YM09151 as competitive ligand

>  <published_relation>  (47) 
=

>  <standard_value>  (47) 
10

>  <qudt_units>  (47) 
http://www.openphacts.org/units/Nanomolar

>  <target_tax_id>  (47) 
9606

>  <bao_label>  (47) 
single protein format

>  <published_units>  (47) 
nM

>  <pchembl_value>  (47) 
8

>  <published_type>  (47) 
IC50

>  <activity_comment>  (47) 
None

$$$$

     RDKit          

 22 23  0  0  0  0  0  0  0  0999 V2000
    0.0000    0.0000    0.0000 C   0  0  0  0  0  0  0  0  0  0  0  0
    0.0000    0.0000    0.0000 C   0  0  0  0  0  0  0  0  0  0  0  0
    0.0000    0.0000    0.0000 N   0  0  0  0  0  0  0  0  0  0  0  0
    0.0000    0.0000    0.0000 C   0  0  0  0  0  0  0  0  0  0  0  0
    0.0000    0.0000    0.0000 C   0  0  0  0  0  0  0  0  0  0  0  0
    0.0000    0.0000    0.0000 C   0  0  0  0  0  0  0  0  0  0  0  0
    0.0000    0.0000    0.0000 C   0  0  0  0  0  0  0  0  0  0  0  0
    0.0000    0.0000    0.0000 C   0  0  0  0  0  0  0  0  0  0  0  0
    0.0000    0.0000    0.0000 N   0  0  0  0  0  0  0  0  0  0  0  0
    0.0000    0.0000    0.0000 C   0  0  0  0  0  0  0  0  0  0  0  0
    0.0000    0.0000    0.0000 O   0  0  0  0  0  0  0  0  0  0  0  0
    0.0000    0.0000    0.0000 C   0  0  0  0  0  0  0  0  0  0  0  0
    0.0000    0.0000    0.0000 C   0  0  0  0  0  0  0  0  0  0  0  0
    0.0000    0.0000    0.0000 O   0  0  0  0  0  0  0  0  0  0  0  0
    0.0000    0.0000    0.0000 C   0  0  0  0  0  0  0  0  0  0  0  0
    0.0000    0.0000    0.0000 C   0  0  0  0  0  0  0  0  0  0  0  0
    0.0000    0.0000    0.0000 C   0  0  0  0  0  0  0  0  0  0  0  0
    0.0000    0.0000    0.0000 C   0  0  0  0  0  0  0  0  0  0  0  0
    0.0000    0.0000    0.0000 Br  0  0  0  0  0  0  0  0  0  0  0  0
    0.0000    0.0000    0.0000 C   0  0  0  0  0  0  0  0  0  0  0  0
    0.0000    0.0000    0.0000 O   0  0  0  0  0  0  0  0  0  0  0  0
    0.0000    0.0000    0.0000 C   0  0  0  0  0  0  0  0  0  0  0  0
  1  2  1  0
  2  3  1  0
  3  4  1  0
  4  5  1  0
  5  6  1  0
  6  7  1  0
  7  8  1  0
  8  9  1  0
  9 10  1  0
 10 11  2  0
 10 12  1  0
 12 13  2  0
 13 14  1  0
 14 15  1  0
 13 16  1  0
 16 17  2  0
 17 18  1  0
 18 19  1  0
 18 20  2  0
 20 21  1  0
 21 22  1  0
  7  3  1  0
 20 12  1  0
M  END
>  <pIC50>  (48) 
7.49

>  <ChEMBL_ID>  (48) 
CHEMBL22242

>  <document_journal>  (48) 
J. Med. Chem.

>  <bao_endpoint>  (48) 
BAO_0000190

>  <potential_duplicate>  (48) 
False

>  <uo_units>  (48) 
UO_0000065

>  <canonical_smiles>  (48) 
CCN1CCC[C@H]1CNC(=O)c2c(OC)ccc(Br)c2OC

>  <parent_molecule_chembl_id>  (48) 
CHEMBL22242

>  <assay_type>  (48) 
B

>  <src_id>  (48) 
1

>  <ligand_efficiency>  (48) 
{u'le': u'0.38', u'bei': u'16.31', u'sei': u'11.92', u'lle': u'3.33'}

>  <standard_flag>  (48) 
True

>  <molecule_chembl_id>  (48) 
CHEMBL22242

>  <target_organism>  (48) 
Homo sapiens

>  <standard_units>  (48) 
nM

>  <record_id>  (48) 
244354

>  <document_chembl_id>  (48) 
CHEMBL1133592

>  <bao_format>  (48) 
BAO_0000357

>  <data_validity_description>  (48) 
None

>  <activity_id>  (48) 
303812

>  <standard_type>  (48) 
IC50

>  <target_chembl_id>  (48) 
CHEMBL217

>  <data_validity_comment>  (48) 
None

>  <published_value>  (48) 
880

>  <document_year>  (48) 
2000

>  <target_pref_name>  (48) 
Dopamine D2 receptor

>  <assay_chembl_id>  (48) 
CHEMBL671074

>  <standard_relation>  (48) 
=

>  <assay_description>  (48) 
Binding affinity to dopamine receptor D2 cloned from human, using [3H]- YM09151 as competitive ligand

>  <published_relation>  (48) 
=

>  <standard_value>  (48) 
880

>  <qudt_units>  (48) 
http://www.openphacts.org/units/Nanomolar

>  <target_tax_id>  (48) 
9606

>  <bao_label>  (48) 
single protein format

>  <published_units>  (48) 
nM

>  <pchembl_value>  (48) 
6.06

>  <published_type>  (48) 
IC50

>  <activity_comment>  (48) 
None

$$$$

     RDKit          

 23 26  0  0  0  0  0  0  0  0999 V2000
    0.0000    0.0000    0.0000 C   0  0  0  0  0  0  0  0  0  0  0  0
    0.0000    0.0000    0.0000 N   0  0  0  0  0  0  0  0  0  0  0  0
    0.0000    0.0000    0.0000 C   0  0  0  0  0  0  0  0  0  0  0  0
    0.0000    0.0000    0.0000 C   0  0  0  0  0  0  0  0  0  0  0  0
    0.0000    0.0000    0.0000 N   0  0  0  0  0  0  0  0  0  0  0  0
    0.0000    0.0000    0.0000 C   0  0  0  0  0  0  0  0  0  0  0  0
    0.0000    0.0000    0.0000 C   0  0  0  0  0  0  0  0  0  0  0  0
    0.0000    0.0000    0.0000 C   0  0  0  0  0  0  0  0  0  0  0  0
    0.0000    0.0000    0.0000 N   0  0  0  0  0  0  0  0  0  0  0  0
    0.0000    0.0000    0.0000 C   0  0  0  0  0  0  0  0  0  0  0  0
    0.0000    0.0000    0.0000 C   0  0  0  0  0  0  0  0  0  0  0  0
    0.0000    0.0000    0.0000 C   0  0  0  0  0  0  0  0  0  0  0  0
    0.0000    0.0000    0.0000 C   0  0  0  0  0  0  0  0  0  0  0  0
    0.0000    0.0000    0.0000 C   0  0  0  0  0  0  0  0  0  0  0  0
    0.0000    0.0000    0.0000 C   0  0  0  0  0  0  0  0  0  0  0  0
    0.0000    0.0000    0.0000 O   0  0  0  0  0  0  0  0  0  0  0  0
    0.0000    0.0000    0.0000 C   0  0  0  0  0  0  0  0  0  0  0  0
    0.0000    0.0000    0.0000 C   0  0  0  0  0  0  0  0  0  0  0  0
    0.0000    0.0000    0.0000 C   0  0  0  0  0  0  0  0  0  0  0  0
    0.0000    0.0000    0.0000 C   0  0  0  0  0  0  0  0  0  0  0  0
    0.0000    0.0000    0.0000 Cl  0  0  0  0  0  0  0  0  0  0  0  0
    0.0000    0.0000    0.0000 C   0  0  0  0  0  0  0  0  0  0  0  0
    0.0000    0.0000    0.0000 C   0  0  0  0  0  0  0  0  0  0  0  0
  1  2  1  0
  2  3  1  0
  3  4  1  0
  4  5  1  0
  5  6  1  0
  6  7  1  0
  5  8  1  0
  8  9  2  0
  9 10  1  0
 10 11  2  0
 11 12  1  0
 12 13  2  0
 13 14  1  0
 14 15  2  0
 15 16  1  0
 16 17  1  0
 17 18  2  0
 18 19  1  0
 19 20  2  0
 20 21  1  0
 20 22  1  0
 22 23  2  0
  7  2  1  0
 23  8  1  0
 15 10  1  0
 23 17  1  0
M  END
>  <pIC50>  (49) 
7.27

>  <ChEMBL_ID>  (49) 
CHEMBL831

>  <document_journal>  (49) 
J. Med. Chem.

>  <bao_endpoint>  (49) 
BAO_0000190

>  <potential_duplicate>  (49) 
False

>  <uo_units>  (49) 
UO_0000065

>  <canonical_smiles>  (49) 
CN1CCN(CC1)C2=Nc3ccccc3Oc4ccc(Cl)cc24

>  <parent_molecule_chembl_id>  (49) 
CHEMBL831

>  <assay_type>  (49) 
B

>  <src_id>  (49) 
1

>  <ligand_efficiency>  (49) 
{u'le': u'0.43', u'bei': u'22.17', u'sei': u'25.89', u'lle': u'3.84'}

>  <standard_flag>  (49) 
True

>  <molecule_chembl_id>  (49) 
CHEMBL831

>  <target_organism>  (49) 
Homo sapiens

>  <standard_units>  (49) 
nM

>  <record_id>  (49) 
127979

>  <document_chembl_id>  (49) 
CHEMBL1132638

>  <bao_format>  (49) 
BAO_0000357

>  <data_validity_description>  (49) 
None

>  <activity_id>  (49) 
351725

>  <standard_type>  (49) 
IC50

>  <target_chembl_id>  (49) 
CHEMBL217

>  <data_validity_comment>  (49) 
None

>  <published_value>  (49) 
54

>  <document_year>  (49) 
1999

>  <target_pref_name>  (49) 
Dopamine D2 receptor

>  <assay_chembl_id>  (49) 
CHEMBL884444

>  <standard_relation>  (49) 
=

>  <assay_description>  (49) 
Compound was tested in vitro for its binding affinity towards human Dopamine receptor D2

>  <published_relation>  (49) 
=

>  <standard_value>  (49) 
54

>  <qudt_units>  (49) 
http://www.openphacts.org/units/Nanomolar

>  <target_tax_id>  (49) 
9606

>  <bao_label>  (49) 
single protein format

>  <published_units>  (49) 
nM

>  <pchembl_value>  (49) 
7.27

>  <published_type>  (49) 
IC50

>  <activity_comment>  (49) 
None

$$$$

     RDKit          

 23 26  0  0  0  0  0  0  0  0999 V2000
    0.0000    0.0000    0.0000 C   0  0  0  0  0  0  0  0  0  0  0  0
    0.0000    0.0000    0.0000 N   0  0  0  0  0  0  0  0  0  0  0  0
    0.0000    0.0000    0.0000 C   0  0  0  0  0  0  0  0  0  0  0  0
    0.0000    0.0000    0.0000 C   0  0  0  0  0  0  0  0  0  0  0  0
    0.0000    0.0000    0.0000 N   0  0  0  0  0  0  0  0  0  0  0  0
    0.0000    0.0000    0.0000 C   0  0  0  0  0  0  0  0  0  0  0  0
    0.0000    0.0000    0.0000 C   0  0  0  0  0  0  0  0  0  0  0  0
    0.0000    0.0000    0.0000 C   0  0  0  0  0  0  0  0  0  0  0  0
    0.0000    0.0000    0.0000 N   0  0  0  0  0  0  0  0  0  0  0  0
    0.0000    0.0000    0.0000 C   0  0  0  0  0  0  0  0  0  0  0  0
    0.0000    0.0000    0.0000 C   0  0  0  0  0  0  0  0  0  0  0  0
    0.0000    0.0000    0.0000 C   0  0  0  0  0  0  0  0  0  0  0  0
    0.0000    0.0000    0.0000 C   0  0  0  0  0  0  0  0  0  0  0  0
    0.0000    0.0000    0.0000 C   0  0  0  0  0  0  0  0  0  0  0  0
    0.0000    0.0000    0.0000 C   0  0  0  0  0  0  0  0  0  0  0  0
    0.0000    0.0000    0.0000 N   0  0  0  0  0  0  0  0  0  0  0  0
    0.0000    0.0000    0.0000 C   0  0  0  0  0  0  0  0  0  0  0  0
    0.0000    0.0000    0.0000 C   0  0  0  0  0  0  0  0  0  0  0  0
    0.0000    0.0000    0.0000 C   0  0  0  0  0  0  0  0  0  0  0  0
    0.0000    0.0000    0.0000 C   0  0  0  0  0  0  0  0  0  0  0  0
    0.0000    0.0000    0.0000 Cl  0  0  0  0  0  0  0  0  0  0  0  0
    0.0000    0.0000    0.0000 C   0  0  0  0  0  0  0  0  0  0  0  0
    0.0000    0.0000    0.0000 C   0  0  0  0  0  0  0  0  0  0  0  0
  1  2  1  0
  2  3  1  0
  3  4  1  0
  4  5  1  0
  5  6  1  0
  6  7  1  0
  5  8  1  0
  8  9  2  0
  9 10  1  0
 10 11  2  0
 11 12  1  0
 12 13  2  0
 13 14  1  0
 14 15  2  0
 15 16  1  0
 16 17  1  0
 17 18  2  0
 18 19  1  0
 19 20  2  0
 20 21  1  0
 20 22  1  0
 22 23  2  0
  7  2  1  0
 23  8  1  0
 15 10  1  0
 23 17  1  0
M  END
>  <pIC50>  (50) 
7.47

>  <ChEMBL_ID>  (50) 
CHEMBL415300

>  <document_journal>  (50) 
J. Med. Chem.

>  <bao_endpoint>  (50) 
BAO_0000190

>  <potential_duplicate>  (50) 
False

>  <uo_units>  (50) 
UO_0000065

>  <canonical_smiles>  (50) 
CN1CCN(CC1)C2=Nc3ccccc3Nc4ccc(Cl)cc24

>  <parent_molecule_chembl_id>  (50) 
CHEMBL415300

>  <assay_type>  (50) 
B

>  <src_id>  (50) 
1

>  <ligand_efficiency>  (50) 
{u'le': u'0.44', u'bei': u'22.85', u'sei': u'24.19', u'lle': u'4.05'}

>  <standard_flag>  (50) 
True

>  <molecule_chembl_id>  (50) 
CHEMBL415300

>  <target_organism>  (50) 
Homo sapiens

>  <standard_units>  (50) 
nM

>  <record_id>  (50) 
127975

>  <document_chembl_id>  (50) 
CHEMBL1132638

>  <bao_format>  (50) 
BAO_0000357

>  <data_validity_description>  (50) 
None

>  <activity_id>  (50) 
353143

>  <standard_type>  (50) 
IC50

>  <target_chembl_id>  (50) 
CHEMBL217

>  <data_validity_comment>  (50) 
None

>  <published_value>  (50) 
34

>  <document_year>  (50) 
1999

>  <target_pref_name>  (50) 
Dopamine D2 receptor

>  <assay_chembl_id>  (50) 
CHEMBL671075

>  <standard_relation>  (50) 
=

>  <assay_description>  (50) 
Binding affinity towards human Dopamine receptor D2

>  <published_relation>  (50) 
=

>  <standard_value>  (50) 
34

>  <qudt_units>  (50) 
http://www.openphacts.org/units/Nanomolar

>  <target_tax_id>  (50) 
9606

>  <bao_label>  (50) 
single protein format

>  <published_units>  (50) 
nM

>  <pchembl_value>  (50) 
7.47

>  <published_type>  (50) 
IC50

>  <activity_comment>  (50) 
None

$$$$

     RDKit          

 30 33  0  0  0  0  0  0  0  0999 V2000
    0.0000    0.0000    0.0000 C   0  0  0  0  0  0  0  0  0  0  0  0
    0.0000    0.0000    0.0000 N   0  0  0  0  0  0  0  0  0  0  0  0
    0.0000    0.0000    0.0000 C   0  0  0  0  0  0  0  0  0  0  0  0
    0.0000    0.0000    0.0000 C   0  0  0  0  0  0  0  0  0  0  0  0
    0.0000    0.0000    0.0000 N   0  0  0  0  0  0  0  0  0  0  0  0
    0.0000    0.0000    0.0000 C   0  0  0  0  0  0  0  0  0  0  0  0
    0.0000    0.0000    0.0000 C   0  0  0  0  0  0  0  0  0  0  0  0
    0.0000    0.0000    0.0000 C   0  0  0  0  0  0  0  0  0  0  0  0
    0.0000    0.0000    0.0000 N   0  0  0  0  0  0  0  0  0  0  0  0
    0.0000    0.0000    0.0000 C   0  0  0  0  0  0  0  0  0  0  0  0
    0.0000    0.0000    0.0000 C   0  0  0  0  0  0  0  0  0  0  0  0
    0.0000    0.0000    0.0000 C   0  0  0  0  0  0  0  0  0  0  0  0
    0.0000    0.0000    0.0000 C   0  0  0  0  0  0  0  0  0  0  0  0
    0.0000    0.0000    0.0000 C   0  0  0  0  0  0  0  0  0  0  0  0
    0.0000    0.0000    0.0000 C   0  0  0  0  0  0  0  0  0  0  0  0
    0.0000    0.0000    0.0000 N   0  0  0  0  0  0  0  0  0  0  0  0
    0.0000    0.0000    0.0000 C   0  0  0  0  0  0  0  0  0  0  0  0
    0.0000    0.0000    0.0000 C   0  0  0  0  0  0  0  0  0  0  0  0
    0.0000    0.0000    0.0000 C   0  0  0  0  0  0  0  0  0  0  0  0
    0.0000    0.0000    0.0000 C   0  0  0  0  0  0  0  0  0  0  0  0
    0.0000    0.0000    0.0000 O   0  0  0  0  0  0  0  0  0  0  0  0
    0.0000    0.0000    0.0000 S   0  0  0  0  0  0  0  0  0  0  0  0
    0.0000    0.0000    0.0000 O   0  0  0  0  0  0  0  0  0  0  0  0
    0.0000    0.0000    0.0000 O   0  0  0  0  0  0  0  0  0  0  0  0
    0.0000    0.0000    0.0000 C   0  0  0  0  0  0  0  0  0  0  0  0
    0.0000    0.0000    0.0000 F   0  0  0  0  0  0  0  0  0  0  0  0
    0.0000    0.0000    0.0000 F   0  0  0  0  0  0  0  0  0  0  0  0
    0.0000    0.0000    0.0000 F   0  0  0  0  0  0  0  0  0  0  0  0
    0.0000    0.0000    0.0000 C   0  0  0  0  0  0  0  0  0  0  0  0
    0.0000    0.0000    0.0000 C   0  0  0  0  0  0  0  0  0  0  0  0
  1  2  1  0
  2  3  1  0
  3  4  1  0
  4  5  1  0
  5  6  1  0
  6  7  1  0
  5  8  1  0
  8  9  2  0
  9 10  1  0
 10 11  2  0
 11 12  1  0
 12 13  2  0
 13 14  1  0
 14 15  2  0
 15 16  1  0
 16 17  1  0
 17 18  2  0
 18 19  1  0
 19 20  2  0
 20 21  1  0
 21 22  1  0
 22 23  2  0
 22 24  2  0
 22 25  1  0
 25 26  1  0
 25 27  1  0
 25 28  1  0
 20 29  1  0
 29 30  2  0
  7  2  1  0
 30  8  1  0
 15 10  1  0
 30 17  1  0
M  END
>  <pIC50>  (51) 
6.85

>  <ChEMBL_ID>  (51) 
CHEMBL72292

>  <document_journal>  (51) 
J. Med. Chem.

>  <bao_endpoint>  (51) 
BAO_0000190

>  <potential_duplicate>  (51) 
False

>  <uo_units>  (51) 
UO_0000065

>  <canonical_smiles>  (51) 
CN1CCN(CC1)C2=Nc3ccccc3Nc4ccc(OS(=O)(=O)C(F)(F)F)cc24

>  <parent_molecule_chembl_id>  (51) 
CHEMBL72292

>  <assay_type>  (51) 
B

>  <src_id>  (51) 
1

>  <ligand_efficiency>  (51) 
{u'le': u'0.31', u'bei': u'15.56', u'sei': u'8.3', u'lle': u'2.4'}

>  <standard_flag>  (51) 
True

>  <molecule_chembl_id>  (51) 
CHEMBL72292

>  <target_organism>  (51) 
Homo sapiens

>  <standard_units>  (51) 
nM

>  <record_id>  (51) 
127971

>  <document_chembl_id>  (51) 
CHEMBL1132638

>  <bao_format>  (51) 
BAO_0000357

>  <data_validity_description>  (51) 
None

>  <activity_id>  (51) 
356184

>  <standard_type>  (51) 
IC50

>  <target_chembl_id>  (51) 
CHEMBL217

>  <data_validity_comment>  (51) 
None

>  <published_value>  (51) 
140

>  <document_year>  (51) 
1999

>  <target_pref_name>  (51) 
Dopamine D2 receptor

>  <assay_chembl_id>  (51) 
CHEMBL671075

>  <standard_relation>  (51) 
=

>  <assay_description>  (51) 
Binding affinity towards human Dopamine receptor D2

>  <published_relation>  (51) 
=

>  <standard_value>  (51) 
140

>  <qudt_units>  (51) 
http://www.openphacts.org/units/Nanomolar

>  <target_tax_id>  (51) 
9606

>  <bao_label>  (51) 
single protein format

>  <published_units>  (51) 
nM

>  <pchembl_value>  (51) 
6.85

>  <published_type>  (51) 
IC50

>  <activity_comment>  (51) 
None

$$$$

     RDKit          

 21 24  0  0  0  0  0  0  0  0999 V2000
    0.0000    0.0000    0.0000 C   0  0  0  0  0  0  0  0  0  0  0  0
    0.0000    0.0000    0.0000 N   0  0  0  0  0  0  0  0  0  0  0  0
    0.0000    0.0000    0.0000 C   0  0  0  0  0  0  0  0  0  0  0  0
    0.0000    0.0000    0.0000 C   0  0  0  0  0  0  0  0  0  0  0  0
    0.0000    0.0000    0.0000 C   0  0  0  0  0  0  0  0  0  0  0  0
    0.0000    0.0000    0.0000 C   0  0  0  0  0  0  0  0  0  0  0  0
    0.0000    0.0000    0.0000 N   0  0  0  0  0  0  0  0  0  0  0  0
    0.0000    0.0000    0.0000 O   0  0  0  0  0  0  0  0  0  0  0  0
    0.0000    0.0000    0.0000 C   0  0  0  0  0  0  0  0  0  0  0  0
    0.0000    0.0000    0.0000 C   0  0  0  0  0  0  0  0  0  0  0  0
    0.0000    0.0000    0.0000 C   0  0  0  0  0  0  0  0  0  0  0  0
    0.0000    0.0000    0.0000 C   0  0  0  0  0  0  0  0  0  0  0  0
    0.0000    0.0000    0.0000 C   0  0  0  0  0  0  0  0  0  0  0  0
    0.0000    0.0000    0.0000 C   0  0  0  0  0  0  0  0  0  0  0  0
    0.0000    0.0000    0.0000 C   0  0  0  0  0  0  0  0  0  0  0  0
    0.0000    0.0000    0.0000 C   0  0  0  0  0  0  0  0  0  0  0  0
    0.0000    0.0000    0.0000 C   0  0  0  0  0  0  0  0  0  0  0  0
    0.0000    0.0000    0.0000 C   0  0  0  0  0  0  0  0  0  0  0  0
    0.0000    0.0000    0.0000 C   0  0  0  0  0  0  0  0  0  0  0  0
    0.0000    0.0000    0.0000 C   0  0  0  0  0  0  0  0  0  0  0  0
    0.0000    0.0000    0.0000 C   0  0  0  0  0  0  0  0  0  0  0  0
  1  2  1  0
  2  3  1  0
  3  4  1  0
  4  5  1  0
  5  6  1  0
  6  7  1  0
  7  8  1  0
  7  9  1  0
  9 10  2  0
 10 11  1  0
 11 12  2  0
 12 13  1  0
 13 14  2  0
 14 15  1  0
 15 16  1  0
 16 17  2  0
 17 18  1  0
 18 19  2  0
 19 20  1  0
 20 21  2  0
  8  4  1  0
 21  6  1  0
 14  9  1  0
 21 16  1  0
M  END
>  <pIC50>  (52) 
5.77

>  <ChEMBL_ID>  (52) 
CHEMBL81485

>  <document_journal>  (52) 
Bioorg. Med. Chem. Lett.

>  <bao_endpoint>  (52) 
BAO_0000190

>  <potential_duplicate>  (52) 
False

>  <uo_units>  (52) 
UO_0000065

>  <canonical_smiles>  (52) 
CNCC1CC2N(O1)c3ccccc3Cc4ccccc24

>  <parent_molecule_chembl_id>  (52) 
CHEMBL81485

>  <assay_type>  (52) 
B

>  <src_id>  (52) 
1

>  <ligand_efficiency>  (52) 
{u'le': u'0.38', u'bei': u'20.58', u'sei': u'23.55', u'lle': u'2.65'}

>  <standard_flag>  (52) 
True

>  <molecule_chembl_id>  (52) 
CHEMBL81485

>  <target_organism>  (52) 
Homo sapiens

>  <standard_units>  (52) 
nM

>  <record_id>  (52) 
147845

>  <document_chembl_id>  (52) 
CHEMBL1135380

>  <bao_format>  (52) 
BAO_0000357

>  <data_validity_description>  (52) 
None

>  <activity_id>  (52) 
369930

>  <standard_type>  (52) 
IC50

>  <target_chembl_id>  (52) 
CHEMBL217

>  <data_validity_comment>  (52) 
None

>  <published_value>  (52) 
5.77

>  <document_year>  (52) 
2002

>  <target_pref_name>  (52) 
Dopamine D2 receptor

>  <assay_chembl_id>  (52) 
CHEMBL857158

>  <standard_relation>  (52) 
=

>  <assay_description>  (52) 
Binding affinity for human cloned Dopamine receptor D2L

>  <published_relation>  (52) 
=

>  <standard_value>  (52) 
1698.24

>  <qudt_units>  (52) 
http://www.openphacts.org/units/Nanomolar

>  <target_tax_id>  (52) 
9606

>  <bao_label>  (52) 
single protein format

>  <published_units>  (52) 
None

>  <pchembl_value>  (52) 
5.77

>  <published_type>  (52) 
pIC50

>  <activity_comment>  (52) 
None

$$$$

     RDKit          

 31 34  0  0  0  0  0  0  0  0999 V2000
    0.0000    0.0000    0.0000 C   0  0  0  0  0  0  0  0  0  0  0  0
    0.0000    0.0000    0.0000 N   0  0  0  0  0  0  0  0  0  0  0  0
    0.0000    0.0000    0.0000 C   0  0  0  0  0  0  0  0  0  0  0  0
    0.0000    0.0000    0.0000 C   0  0  0  0  0  0  0  0  0  0  0  0
    0.0000    0.0000    0.0000 N   0  0  0  0  0  0  0  0  0  0  0  0
    0.0000    0.0000    0.0000 C   0  0  0  0  0  0  0  0  0  0  0  0
    0.0000    0.0000    0.0000 C   0  0  0  0  0  0  0  0  0  0  0  0
    0.0000    0.0000    0.0000 C   0  0  0  0  0  0  0  0  0  0  0  0
    0.0000    0.0000    0.0000 N   0  0  0  0  0  0  0  0  0  0  0  0
    0.0000    0.0000    0.0000 C   0  0  0  0  0  0  0  0  0  0  0  0
    0.0000    0.0000    0.0000 C   0  0  0  0  0  0  0  0  0  0  0  0
    0.0000    0.0000    0.0000 C   0  0  0  0  0  0  0  0  0  0  0  0
    0.0000    0.0000    0.0000 Cl  0  0  0  0  0  0  0  0  0  0  0  0
    0.0000    0.0000    0.0000 C   0  0  0  0  0  0  0  0  0  0  0  0
    0.0000    0.0000    0.0000 C   0  0  0  0  0  0  0  0  0  0  0  0
    0.0000    0.0000    0.0000 C   0  0  0  0  0  0  0  0  0  0  0  0
    0.0000    0.0000    0.0000 N   0  0  0  0  0  0  0  0  0  0  0  0
    0.0000    0.0000    0.0000 C   0  0  0  0  0  0  0  0  0  0  0  0
    0.0000    0.0000    0.0000 C   0  0  0  0  0  0  0  0  0  0  0  0
    0.0000    0.0000    0.0000 C   0  0  0  0  0  0  0  0  0  0  0  0
    0.0000    0.0000    0.0000 C   0  0  0  0  0  0  0  0  0  0  0  0
    0.0000    0.0000    0.0000 O   0  0  0  0  0  0  0  0  0  0  0  0
    0.0000    0.0000    0.0000 S   0  0  0  0  0  0  0  0  0  0  0  0
    0.0000    0.0000    0.0000 O   0  0  0  0  0  0  0  0  0  0  0  0
    0.0000    0.0000    0.0000 O   0  0  0  0  0  0  0  0  0  0  0  0
    0.0000    0.0000    0.0000 C   0  0  0  0  0  0  0  0  0  0  0  0
    0.0000    0.0000    0.0000 F   0  0  0  0  0  0  0  0  0  0  0  0
    0.0000    0.0000    0.0000 F   0  0  0  0  0  0  0  0  0  0  0  0
    0.0000    0.0000    0.0000 F   0  0  0  0  0  0  0  0  0  0  0  0
    0.0000    0.0000    0.0000 C   0  0  0  0  0  0  0  0  0  0  0  0
    0.0000    0.0000    0.0000 C   0  0  0  0  0  0  0  0  0  0  0  0
  1  2  1  0
  2  3  1  0
  3  4  1  0
  4  5  1  0
  5  6  1  0
  6  7  1  0
  5  8  1  0
  8  9  2  0
  9 10  1  0
 10 11  2  0
 11 12  1  0
 12 13  1  0
 12 14  2  0
 14 15  1  0
 15 16  2  0
 16 17  1  0
 17 18  1  0
 18 19  2  0
 19 20  1  0
 20 21  2  0
 21 22  1  0
 22 23  1  0
 23 24  2  0
 23 25  2  0
 23 26  1  0
 26 27  1  0
 26 28  1  0
 26 29  1  0
 21 30  1  0
 30 31  2  0
  7  2  1  0
 31  8  1  0
 16 10  1  0
 31 18  1  0
M  END
>  <pIC50>  (53) 
7.52

>  <ChEMBL_ID>  (53) 
CHEMBL70319

>  <document_journal>  (53) 
J. Med. Chem.

>  <bao_endpoint>  (53) 
BAO_0000190

>  <potential_duplicate>  (53) 
False

>  <uo_units>  (53) 
UO_0000065

>  <canonical_smiles>  (53) 
CN1CCN(CC1)C2=Nc3cc(Cl)ccc3Nc4ccc(OS(=O)(=O)C(F)(F)F)cc24

>  <parent_molecule_chembl_id>  (53) 
CHEMBL70319

>  <assay_type>  (53) 
B

>  <src_id>  (53) 
1

>  <ligand_efficiency>  (53) 
{u'le': u'0.33', u'bei': u'15.84', u'sei': u'9.11', u'lle': u'2.4'}

>  <standard_flag>  (53) 
True

>  <molecule_chembl_id>  (53) 
CHEMBL70319

>  <target_organism>  (53) 
Homo sapiens

>  <standard_units>  (53) 
nM

>  <record_id>  (53) 
127976

>  <document_chembl_id>  (53) 
CHEMBL1132638

>  <bao_format>  (53) 
BAO_0000357

>  <data_validity_description>  (53) 
None

>  <activity_id>  (53) 
370265

>  <standard_type>  (53) 
IC50

>  <target_chembl_id>  (53) 
CHEMBL217

>  <data_validity_comment>  (53) 
None

>  <published_value>  (53) 
30

>  <document_year>  (53) 
1999

>  <target_pref_name>  (53) 
Dopamine D2 receptor

>  <assay_chembl_id>  (53) 
CHEMBL671075

>  <standard_relation>  (53) 
=

>  <assay_description>  (53) 
Binding affinity towards human Dopamine receptor D2

>  <published_relation>  (53) 
=

>  <standard_value>  (53) 
30

>  <qudt_units>  (53) 
http://www.openphacts.org/units/Nanomolar

>  <target_tax_id>  (53) 
9606

>  <bao_label>  (53) 
single protein format

>  <published_units>  (53) 
nM

>  <pchembl_value>  (53) 
7.52

>  <published_type>  (53) 
IC50

>  <activity_comment>  (53) 
None

$$$$

     RDKit          

 30 33  0  0  0  0  0  0  0  0999 V2000
    0.0000    0.0000    0.0000 C   0  0  0  0  0  0  0  0  0  0  0  0
    0.0000    0.0000    0.0000 N   0  0  0  0  0  0  0  0  0  0  0  0
    0.0000    0.0000    0.0000 C   0  0  0  0  0  0  0  0  0  0  0  0
    0.0000    0.0000    0.0000 C   0  0  0  0  0  0  0  0  0  0  0  0
    0.0000    0.0000    0.0000 N   0  0  0  0  0  0  0  0  0  0  0  0
    0.0000    0.0000    0.0000 C   0  0  0  0  0  0  0  0  0  0  0  0
    0.0000    0.0000    0.0000 C   0  0  0  0  0  0  0  0  0  0  0  0
    0.0000    0.0000    0.0000 C   0  0  0  0  0  0  0  0  0  0  0  0
    0.0000    0.0000    0.0000 N   0  0  0  0  0  0  0  0  0  0  0  0
    0.0000    0.0000    0.0000 C   0  0  0  0  0  0  0  0  0  0  0  0
    0.0000    0.0000    0.0000 C   0  0  0  0  0  0  0  0  0  0  0  0
    0.0000    0.0000    0.0000 C   0  0  0  0  0  0  0  0  0  0  0  0
    0.0000    0.0000    0.0000 C   0  0  0  0  0  0  0  0  0  0  0  0
    0.0000    0.0000    0.0000 C   0  0  0  0  0  0  0  0  0  0  0  0
    0.0000    0.0000    0.0000 C   0  0  0  0  0  0  0  0  0  0  0  0
    0.0000    0.0000    0.0000 S   0  0  0  0  0  0  0  0  0  0  0  0
    0.0000    0.0000    0.0000 C   0  0  0  0  0  0  0  0  0  0  0  0
    0.0000    0.0000    0.0000 C   0  0  0  0  0  0  0  0  0  0  0  0
    0.0000    0.0000    0.0000 C   0  0  0  0  0  0  0  0  0  0  0  0
    0.0000    0.0000    0.0000 C   0  0  0  0  0  0  0  0  0  0  0  0
    0.0000    0.0000    0.0000 O   0  0  0  0  0  0  0  0  0  0  0  0
    0.0000    0.0000    0.0000 S   0  0  0  0  0  0  0  0  0  0  0  0
    0.0000    0.0000    0.0000 O   0  0  0  0  0  0  0  0  0  0  0  0
    0.0000    0.0000    0.0000 O   0  0  0  0  0  0  0  0  0  0  0  0
    0.0000    0.0000    0.0000 C   0  0  0  0  0  0  0  0  0  0  0  0
    0.0000    0.0000    0.0000 F   0  0  0  0  0  0  0  0  0  0  0  0
    0.0000    0.0000    0.0000 F   0  0  0  0  0  0  0  0  0  0  0  0
    0.0000    0.0000    0.0000 F   0  0  0  0  0  0  0  0  0  0  0  0
    0.0000    0.0000    0.0000 C   0  0  0  0  0  0  0  0  0  0  0  0
    0.0000    0.0000    0.0000 C   0  0  0  0  0  0  0  0  0  0  0  0
  1  2  1  0
  2  3  1  0
  3  4  1  0
  4  5  1  0
  5  6  1  0
  6  7  1  0
  5  8  1  0
  8  9  2  0
  9 10  1  0
 10 11  2  0
 11 12  1  0
 12 13  2  0
 13 14  1  0
 14 15  2  0
 15 16  1  0
 16 17  1  0
 17 18  2  0
 18 19  1  0
 19 20  2  0
 20 21  1  0
 21 22  1  0
 22 23  2  0
 22 24  2  0
 22 25  1  0
 25 26  1  0
 25 27  1  0
 25 28  1  0
 20 29  1  0
 29 30  2  0
  7  2  1  0
 30  8  1  0
 15 10  1  0
 30 17  1  0
M  END
>  <pIC50>  (54) 
7.64

>  <ChEMBL_ID>  (54) 
CHEMBL73589

>  <document_journal>  (54) 
J. Med. Chem.

>  <bao_endpoint>  (54) 
BAO_0000190

>  <potential_duplicate>  (54) 
False

>  <uo_units>  (54) 
UO_0000065

>  <canonical_smiles>  (54) 
CN1CCN(CC1)C2=Nc3ccccc3Sc4ccc(OS(=O)(=O)C(F)(F)F)cc24

>  <parent_molecule_chembl_id>  (54) 
CHEMBL73589

>  <assay_type>  (54) 
B

>  <src_id>  (54) 
1

>  <ligand_efficiency>  (54) 
{u'le': u'0.35', u'bei': u'16.7', u'sei': u'7.97', u'lle': u'2.62'}

>  <standard_flag>  (54) 
True

>  <molecule_chembl_id>  (54) 
CHEMBL73589

>  <target_organism>  (54) 
Homo sapiens

>  <standard_units>  (54) 
nM

>  <record_id>  (54) 
127980

>  <document_chembl_id>  (54) 
CHEMBL1132638

>  <bao_format>  (54) 
BAO_0000357

>  <data_validity_description>  (54) 
None

>  <activity_id>  (54) 
371638

>  <standard_type>  (54) 
IC50

>  <target_chembl_id>  (54) 
CHEMBL217

>  <data_validity_comment>  (54) 
None

>  <published_value>  (54) 
23

>  <document_year>  (54) 
1999

>  <target_pref_name>  (54) 
Dopamine D2 receptor

>  <assay_chembl_id>  (54) 
CHEMBL671075

>  <standard_relation>  (54) 
=

>  <assay_description>  (54) 
Binding affinity towards human Dopamine receptor D2

>  <published_relation>  (54) 
=

>  <standard_value>  (54) 
23

>  <qudt_units>  (54) 
http://www.openphacts.org/units/Nanomolar

>  <target_tax_id>  (54) 
9606

>  <bao_label>  (54) 
single protein format

>  <published_units>  (54) 
nM

>  <pchembl_value>  (54) 
7.64

>  <published_type>  (54) 
IC50

>  <activity_comment>  (54) 
None

$$$$

     RDKit          

 22 25  0  0  0  0  0  0  0  0999 V2000
    0.0000    0.0000    0.0000 C   0  0  0  0  0  0  0  0  0  0  0  0
    0.0000    0.0000    0.0000 N   0  0  0  0  0  0  0  0  0  0  0  0
    0.0000    0.0000    0.0000 C   0  0  0  0  0  0  0  0  0  0  0  0
    0.0000    0.0000    0.0000 C   0  0  0  0  0  0  0  0  0  0  0  0
    0.0000    0.0000    0.0000 C   0  0  0  0  0  0  0  0  0  0  0  0
    0.0000    0.0000    0.0000 C   0  0  0  0  0  0  0  0  0  0  0  0
    0.0000    0.0000    0.0000 C   0  0  0  0  0  0  0  0  0  0  0  0
    0.0000    0.0000    0.0000 N   0  0  0  0  0  0  0  0  0  0  0  0
    0.0000    0.0000    0.0000 O   0  0  0  0  0  0  0  0  0  0  0  0
    0.0000    0.0000    0.0000 C   0  0  0  0  0  0  0  0  0  0  0  0
    0.0000    0.0000    0.0000 C   0  0  0  0  0  0  0  0  0  0  0  0
    0.0000    0.0000    0.0000 C   0  0  0  0  0  0  0  0  0  0  0  0
    0.0000    0.0000    0.0000 C   0  0  0  0  0  0  0  0  0  0  0  0
    0.0000    0.0000    0.0000 C   0  0  0  0  0  0  0  0  0  0  0  0
    0.0000    0.0000    0.0000 C   0  0  0  0  0  0  0  0  0  0  0  0
    0.0000    0.0000    0.0000 C   0  0  0  0  0  0  0  0  0  0  0  0
    0.0000    0.0000    0.0000 C   0  0  0  0  0  0  0  0  0  0  0  0
    0.0000    0.0000    0.0000 C   0  0  0  0  0  0  0  0  0  0  0  0
    0.0000    0.0000    0.0000 C   0  0  0  0  0  0  0  0  0  0  0  0
    0.0000    0.0000    0.0000 C   0  0  0  0  0  0  0  0  0  0  0  0
    0.0000    0.0000    0.0000 C   0  0  0  0  0  0  0  0  0  0  0  0
    0.0000    0.0000    0.0000 C   0  0  0  0  0  0  0  0  0  0  0  0
  1  2  1  0
  2  3  1  0
  2  4  1  0
  4  5  1  0
  5  6  1  0
  6  7  1  0
  7  8  1  0
  8  9  1  0
  8 10  1  0
 10 11  2  0
 11 12  1  0
 12 13  2  0
 13 14  1  0
 14 15  2  0
 15 16  1  0
 16 17  1  0
 17 18  2  0
 18 19  1  0
 19 20  2  0
 20 21  1  0
 21 22  2  0
  9  5  1  0
 22  7  1  0
 15 10  1  0
 22 17  1  0
M  END
>  <pIC50>  (55) 
6.06

>  <ChEMBL_ID>  (55) 
CHEMBL83658

>  <document_journal>  (55) 
Bioorg. Med. Chem. Lett.

>  <bao_endpoint>  (55) 
BAO_0000190

>  <potential_duplicate>  (55) 
False

>  <uo_units>  (55) 
UO_0000065

>  <canonical_smiles>  (55) 
CN(C)CC1CC2N(O1)c3ccccc3Cc4ccccc24

>  <parent_molecule_chembl_id>  (55) 
CHEMBL83658

>  <assay_type>  (55) 
B

>  <src_id>  (55) 
1

>  <ligand_efficiency>  (55) 
{u'le': u'0.38', u'bei': u'20.58', u'sei': u'38.57', u'lle': u'2.4'}

>  <standard_flag>  (55) 
True

>  <molecule_chembl_id>  (55) 
CHEMBL83658

>  <target_organism>  (55) 
Homo sapiens

>  <standard_units>  (55) 
nM

>  <record_id>  (55) 
147852

>  <document_chembl_id>  (55) 
CHEMBL1135380

>  <bao_format>  (55) 
BAO_0000357

>  <data_validity_description>  (55) 
None

>  <activity_id>  (55) 
372649

>  <standard_type>  (55) 
IC50

>  <target_chembl_id>  (55) 
CHEMBL217

>  <data_validity_comment>  (55) 
None

>  <published_value>  (55) 
6.06

>  <document_year>  (55) 
2002

>  <target_pref_name>  (55) 
Dopamine D2 receptor

>  <assay_chembl_id>  (55) 
CHEMBL857158

>  <standard_relation>  (55) 
=

>  <assay_description>  (55) 
Binding affinity for human cloned Dopamine receptor D2L

>  <published_relation>  (55) 
=

>  <standard_value>  (55) 
870.96

>  <qudt_units>  (55) 
http://www.openphacts.org/units/Nanomolar

>  <target_tax_id>  (55) 
9606

>  <bao_label>  (55) 
single protein format

>  <published_units>  (55) 
None

>  <pchembl_value>  (55) 
6.06

>  <published_type>  (55) 
pIC50

>  <activity_comment>  (55) 
None

$$$$

     RDKit          

 23 26  0  0  0  0  0  0  0  0999 V2000
    0.0000    0.0000    0.0000 C   0  0  0  0  0  0  0  0  0  0  0  0
    0.0000    0.0000    0.0000 N   0  0  0  0  0  0  0  0  0  0  0  0
    0.0000    0.0000    0.0000 C   0  0  0  0  0  0  0  0  0  0  0  0
    0.0000    0.0000    0.0000 C   0  0  0  0  0  0  0  0  0  0  0  0
    0.0000    0.0000    0.0000 C   0  0  0  0  0  0  0  0  0  0  0  0
    0.0000    0.0000    0.0000 C   0  0  0  0  0  0  0  0  0  0  0  0
    0.0000    0.0000    0.0000 C   0  0  0  0  0  0  0  0  0  0  0  0
    0.0000    0.0000    0.0000 C   0  0  0  0  0  0  0  0  0  0  0  0
    0.0000    0.0000    0.0000 N   0  0  0  0  0  0  0  0  0  0  0  0
    0.0000    0.0000    0.0000 O   0  0  0  0  0  0  0  0  0  0  0  0
    0.0000    0.0000    0.0000 C   0  0  0  0  0  0  0  0  0  0  0  0
    0.0000    0.0000    0.0000 C   0  0  0  0  0  0  0  0  0  0  0  0
    0.0000    0.0000    0.0000 C   0  0  0  0  0  0  0  0  0  0  0  0
    0.0000    0.0000    0.0000 C   0  0  0  0  0  0  0  0  0  0  0  0
    0.0000    0.0000    0.0000 C   0  0  0  0  0  0  0  0  0  0  0  0
    0.0000    0.0000    0.0000 C   0  0  0  0  0  0  0  0  0  0  0  0
    0.0000    0.0000    0.0000 C   0  0  0  0  0  0  0  0  0  0  0  0
    0.0000    0.0000    0.0000 C   0  0  0  0  0  0  0  0  0  0  0  0
    0.0000    0.0000    0.0000 C   0  0  0  0  0  0  0  0  0  0  0  0
    0.0000    0.0000    0.0000 C   0  0  0  0  0  0  0  0  0  0  0  0
    0.0000    0.0000    0.0000 C   0  0  0  0  0  0  0  0  0  0  0  0
    0.0000    0.0000    0.0000 C   0  0  0  0  0  0  0  0  0  0  0  0
    0.0000    0.0000    0.0000 C   0  0  0  0  0  0  0  0  0  0  0  0
  1  2  1  0
  2  3  1  0
  2  4  1  0
  4  5  1  0
  5  6  1  0
  6  7  1  0
  7  8  1  0
  8  9  1  0
  9 10  1  0
  9 11  1  0
 11 12  2  0
 12 13  1  0
 13 14  2  0
 14 15  1  0
 15 16  2  0
 16 17  1  0
 17 18  1  0
 18 19  2  0
 19 20  1  0
 20 21  2  0
 21 22  1  0
 22 23  2  0
 10  6  1  0
 23  8  1  0
 16 11  1  0
 23 18  1  0
M  END
>  <pIC50>  (56) 
5.02

>  <ChEMBL_ID>  (56) 
CHEMBL313189

>  <document_journal>  (56) 
Bioorg. Med. Chem. Lett.

>  <bao_endpoint>  (56) 
BAO_0000190

>  <potential_duplicate>  (56) 
False

>  <uo_units>  (56) 
UO_0000065

>  <canonical_smiles>  (56) 
CN(C)CCC1CC2N(O1)c3ccccc3Cc4ccccc24

>  <parent_molecule_chembl_id>  (56) 
CHEMBL313189

>  <assay_type>  (56) 
B

>  <src_id>  (56) 
1

>  <ligand_efficiency>  (56) 
{u'le': u'0.3', u'bei': u'16.28', u'sei': u'31.95', u'lle': u'1.3'}

>  <standard_flag>  (56) 
True

>  <molecule_chembl_id>  (56) 
CHEMBL313189

>  <target_organism>  (56) 
Homo sapiens

>  <standard_units>  (56) 
nM

>  <record_id>  (56) 
147856

>  <document_chembl_id>  (56) 
CHEMBL1135380

>  <bao_format>  (56) 
BAO_0000357

>  <data_validity_description>  (56) 
None

>  <activity_id>  (56) 
376927

>  <standard_type>  (56) 
IC50

>  <target_chembl_id>  (56) 
CHEMBL217

>  <data_validity_comment>  (56) 
None

>  <published_value>  (56) 
5.02

>  <document_year>  (56) 
2002

>  <target_pref_name>  (56) 
Dopamine D2 receptor

>  <assay_chembl_id>  (56) 
CHEMBL857158

>  <standard_relation>  (56) 
=

>  <assay_description>  (56) 
Binding affinity for human cloned Dopamine receptor D2L

>  <published_relation>  (56) 
=

>  <standard_value>  (56) 
9549.93

>  <qudt_units>  (56) 
http://www.openphacts.org/units/Nanomolar

>  <target_tax_id>  (56) 
9606

>  <bao_label>  (56) 
single protein format

>  <published_units>  (56) 
None

>  <pchembl_value>  (56) 
5.02

>  <published_type>  (56) 
pIC50

>  <activity_comment>  (56) 
None

$$$$

     RDKit          

 30 33  0  0  0  0  0  0  0  0999 V2000
    0.0000    0.0000    0.0000 C   0  0  0  0  0  0  0  0  0  0  0  0
    0.0000    0.0000    0.0000 N   0  0  0  0  0  0  0  0  0  0  0  0
    0.0000    0.0000    0.0000 C   0  0  0  0  0  0  0  0  0  0  0  0
    0.0000    0.0000    0.0000 C   0  0  0  0  0  0  0  0  0  0  0  0
    0.0000    0.0000    0.0000 N   0  0  0  0  0  0  0  0  0  0  0  0
    0.0000    0.0000    0.0000 C   0  0  0  0  0  0  0  0  0  0  0  0
    0.0000    0.0000    0.0000 C   0  0  0  0  0  0  0  0  0  0  0  0
    0.0000    0.0000    0.0000 C   0  0  0  0  0  0  0  0  0  0  0  0
    0.0000    0.0000    0.0000 N   0  0  0  0  0  0  0  0  0  0  0  0
    0.0000    0.0000    0.0000 C   0  0  0  0  0  0  0  0  0  0  0  0
    0.0000    0.0000    0.0000 C   0  0  0  0  0  0  0  0  0  0  0  0
    0.0000    0.0000    0.0000 C   0  0  0  0  0  0  0  0  0  0  0  0
    0.0000    0.0000    0.0000 C   0  0  0  0  0  0  0  0  0  0  0  0
    0.0000    0.0000    0.0000 C   0  0  0  0  0  0  0  0  0  0  0  0
    0.0000    0.0000    0.0000 C   0  0  0  0  0  0  0  0  0  0  0  0
    0.0000    0.0000    0.0000 O   0  0  0  0  0  0  0  0  0  0  0  0
    0.0000    0.0000    0.0000 C   0  0  0  0  0  0  0  0  0  0  0  0
    0.0000    0.0000    0.0000 C   0  0  0  0  0  0  0  0  0  0  0  0
    0.0000    0.0000    0.0000 C   0  0  0  0  0  0  0  0  0  0  0  0
    0.0000    0.0000    0.0000 C   0  0  0  0  0  0  0  0  0  0  0  0
    0.0000    0.0000    0.0000 O   0  0  0  0  0  0  0  0  0  0  0  0
    0.0000    0.0000    0.0000 S   0  0  0  0  0  0  0  0  0  0  0  0
    0.0000    0.0000    0.0000 O   0  0  0  0  0  0  0  0  0  0  0  0
    0.0000    0.0000    0.0000 O   0  0  0  0  0  0  0  0  0  0  0  0
    0.0000    0.0000    0.0000 C   0  0  0  0  0  0  0  0  0  0  0  0
    0.0000    0.0000    0.0000 F   0  0  0  0  0  0  0  0  0  0  0  0
    0.0000    0.0000    0.0000 F   0  0  0  0  0  0  0  0  0  0  0  0
    0.0000    0.0000    0.0000 F   0  0  0  0  0  0  0  0  0  0  0  0
    0.0000    0.0000    0.0000 C   0  0  0  0  0  0  0  0  0  0  0  0
    0.0000    0.0000    0.0000 C   0  0  0  0  0  0  0  0  0  0  0  0
  1  2  1  0
  2  3  1  0
  3  4  1  0
  4  5  1  0
  5  6  1  0
  6  7  1  0
  5  8  1  0
  8  9  2  0
  9 10  1  0
 10 11  2  0
 11 12  1  0
 12 13  2  0
 13 14  1  0
 14 15  2  0
 15 16  1  0
 16 17  1  0
 17 18  2  0
 18 19  1  0
 19 20  2  0
 20 21  1  0
 21 22  1  0
 22 23  2  0
 22 24  2  0
 22 25  1  0
 25 26  1  0
 25 27  1  0
 25 28  1  0
 20 29  1  0
 29 30  2  0
  7  2  1  0
 30  8  1  0
 15 10  1  0
 30 17  1  0
M  END
>  <pIC50>  (57) 
7.28

>  <ChEMBL_ID>  (57) 
CHEMBL430798

>  <document_journal>  (57) 
J. Med. Chem.

>  <bao_endpoint>  (57) 
BAO_0000190

>  <potential_duplicate>  (57) 
False

>  <uo_units>  (57) 
UO_0000065

>  <canonical_smiles>  (57) 
CN1CCN(CC1)C2=Nc3ccccc3Oc4ccc(OS(=O)(=O)C(F)(F)F)cc24

>  <parent_molecule_chembl_id>  (57) 
CHEMBL430798

>  <assay_type>  (57) 
B

>  <src_id>  (57) 
1

>  <ligand_efficiency>  (57) 
{u'le': u'0.33', u'bei': u'16.5', u'sei': u'9.13', u'lle': u'2.82'}

>  <standard_flag>  (57) 
True

>  <molecule_chembl_id>  (57) 
CHEMBL430798

>  <target_organism>  (57) 
Homo sapiens

>  <standard_units>  (57) 
nM

>  <record_id>  (57) 
127981

>  <document_chembl_id>  (57) 
CHEMBL1132638

>  <bao_format>  (57) 
BAO_0000357

>  <data_validity_description>  (57) 
None

>  <activity_id>  (57) 
378666

>  <standard_type>  (57) 
IC50

>  <target_chembl_id>  (57) 
CHEMBL217

>  <data_validity_comment>  (57) 
None

>  <published_value>  (57) 
52

>  <document_year>  (57) 
1999

>  <target_pref_name>  (57) 
Dopamine D2 receptor

>  <assay_chembl_id>  (57) 
CHEMBL671075

>  <standard_relation>  (57) 
=

>  <assay_description>  (57) 
Binding affinity towards human Dopamine receptor D2

>  <published_relation>  (57) 
=

>  <standard_value>  (57) 
52

>  <qudt_units>  (57) 
http://www.openphacts.org/units/Nanomolar

>  <target_tax_id>  (57) 
9606

>  <bao_label>  (57) 
single protein format

>  <published_units>  (57) 
nM

>  <pchembl_value>  (57) 
7.28

>  <published_type>  (57) 
IC50

>  <activity_comment>  (57) 
None

$$$$

     RDKit          

 20 23  0  0  0  0  0  0  0  0999 V2000
    0.0000    0.0000    0.0000 C   0  0  0  0  0  0  0  0  0  0  0  0
    0.0000    0.0000    0.0000 N   0  0  0  0  0  0  0  0  0  0  0  0
    0.0000    0.0000    0.0000 C   0  0  0  0  0  0  0  0  0  0  0  0
    0.0000    0.0000    0.0000 C   0  0  0  0  0  0  0  0  0  0  0  0
    0.0000    0.0000    0.0000 N   0  0  0  0  0  0  0  0  0  0  0  0
    0.0000    0.0000    0.0000 C   0  0  0  0  0  0  0  0  0  0  0  0
    0.0000    0.0000    0.0000 C   0  0  0  0  0  0  0  0  0  0  0  0
    0.0000    0.0000    0.0000 C   0  0  0  0  0  0  0  0  0  0  0  0
    0.0000    0.0000    0.0000 C   0  0  0  0  0  0  0  0  0  0  0  0
    0.0000    0.0000    0.0000 C   0  0  0  0  0  0  0  0  0  0  0  0
    0.0000    0.0000    0.0000 C   0  0  0  0  0  0  0  0  0  0  0  0
    0.0000    0.0000    0.0000 C   0  0  0  0  0  0  0  0  0  0  0  0
    0.0000    0.0000    0.0000 C   0  0  0  0  0  0  0  0  0  0  0  0
    0.0000    0.0000    0.0000 C   0  0  0  0  0  0  0  0  0  0  0  0
    0.0000    0.0000    0.0000 C   0  0  0  0  0  0  0  0  0  0  0  0
    0.0000    0.0000    0.0000 C   0  0  0  0  0  0  0  0  0  0  0  0
    0.0000    0.0000    0.0000 C   0  0  0  0  0  0  0  0  0  0  0  0
    0.0000    0.0000    0.0000 C   0  0  0  0  0  0  0  0  0  0  0  0
    0.0000    0.0000    0.0000 C   0  0  0  0  0  0  0  0  0  0  0  0
    0.0000    0.0000    0.0000 C   0  0  0  0  0  0  0  0  0  0  0  0
  1  2  1  0
  2  3  1  0
  3  4  1  0
  4  5  1  0
  5  6  1  0
  6  7  1  0
  6  8  1  0
  8  9  2  0
  9 10  1  0
 10 11  2  0
 11 12  1  0
 12 13  2  0
 13 14  1  0
 14 15  1  0
 15 16  2  0
 16 17  1  0
 17 18  2  0
 18 19  1  0
 19 20  2  0
  7  2  1  0
 20  5  1  0
 13  8  1  0
 20 15  1  0
M  END
>  <pIC50>  (58) 
5.15

>  <ChEMBL_ID>  (58) 
CHEMBL6437

>  <document_journal>  (58) 
Bioorg. Med. Chem. Lett.

>  <bao_endpoint>  (58) 
BAO_0000190

>  <potential_duplicate>  (58) 
False

>  <uo_units>  (58) 
UO_0000065

>  <canonical_smiles>  (58) 
CN1CCN2C(C1)c3ccccc3Cc4ccccc24

>  <parent_molecule_chembl_id>  (58) 
CHEMBL6437

>  <assay_type>  (58) 
B

>  <src_id>  (58) 
1

>  <ligand_efficiency>  (58) 
{u'le': u'0.35', u'bei': u'19.48', u'sei': u'79.48', u'lle': u'1.44'}

>  <standard_flag>  (58) 
True

>  <molecule_chembl_id>  (58) 
CHEMBL6437

>  <target_organism>  (58) 
Homo sapiens

>  <standard_units>  (58) 
nM

>  <record_id>  (58) 
147857

>  <document_chembl_id>  (58) 
CHEMBL1135380

>  <bao_format>  (58) 
BAO_0000357

>  <data_validity_description>  (58) 
None

>  <activity_id>  (58) 
386983

>  <standard_type>  (58) 
IC50

>  <target_chembl_id>  (58) 
CHEMBL217

>  <data_validity_comment>  (58) 
None

>  <published_value>  (58) 
5.15

>  <document_year>  (58) 
2002

>  <target_pref_name>  (58) 
Dopamine D2 receptor

>  <assay_chembl_id>  (58) 
CHEMBL857158

>  <standard_relation>  (58) 
=

>  <assay_description>  (58) 
Binding affinity for human cloned Dopamine receptor D2L

>  <published_relation>  (58) 
=

>  <standard_value>  (58) 
7079.46

>  <qudt_units>  (58) 
http://www.openphacts.org/units/Nanomolar

>  <target_tax_id>  (58) 
9606

>  <bao_label>  (58) 
single protein format

>  <published_units>  (58) 
None

>  <pchembl_value>  (58) 
5.15

>  <published_type>  (58) 
pIC50

>  <activity_comment>  (58) 
None

$$$$

     RDKit          

 10 11  0  0  0  0  0  0  0  0999 V2000
    0.0000    0.0000    0.0000 O   0  0  0  0  0  0  0  0  0  0  0  0
    0.0000    0.0000    0.0000 C   0  0  0  0  0  0  0  0  0  0  0  0
    0.0000    0.0000    0.0000 C   0  0  0  0  0  0  0  0  0  0  0  0
    0.0000    0.0000    0.0000 C   0  0  0  0  0  0  0  0  0  0  0  0
    0.0000    0.0000    0.0000 C   0  0  0  0  0  0  0  0  0  0  0  0
    0.0000    0.0000    0.0000 N   0  0  0  0  0  0  0  0  0  0  0  0
    0.0000    0.0000    0.0000 C   0  0  0  0  0  0  0  0  0  0  0  0
    0.0000    0.0000    0.0000 C   0  0  0  0  0  0  0  0  0  0  0  0
    0.0000    0.0000    0.0000 C   0  0  0  0  0  0  0  0  0  0  0  0
    0.0000    0.0000    0.0000 C   0  0  0  0  0  0  0  0  0  0  0  0
  1  2  1  0
  2  3  2  0
  3  4  1  0
  4  5  2  0
  5  6  1  0
  6  7  1  0
  7  8  1  0
  8  9  1  0
  9 10  2  0
 10  2  1  0
  9  5  1  0
M  END
>  <pIC50>  (59) 
5.99

>  <ChEMBL_ID>  (59) 
CHEMBL19331

>  <document_journal>  (59) 
Bioorg. Med. Chem. Lett.

>  <bao_endpoint>  (59) 
BAO_0000190

>  <potential_duplicate>  (59) 
False

>  <uo_units>  (59) 
UO_0000065

>  <canonical_smiles>  (59) 
Oc1ccc2NCCc2c1

>  <parent_molecule_chembl_id>  (59) 
CHEMBL19331

>  <assay_type>  (59) 
B

>  <src_id>  (59) 
1

>  <ligand_efficiency>  (59) 
{u'le': u'0.82', u'bei': u'44.3', u'sei': u'18.56', u'lle': u'4.52'}

>  <standard_flag>  (59) 
True

>  <molecule_chembl_id>  (59) 
CHEMBL19331

>  <target_organism>  (59) 
Homo sapiens

>  <standard_units>  (59) 
nM

>  <record_id>  (59) 
24510

>  <document_chembl_id>  (59) 
CHEMBL1129926

>  <bao_format>  (59) 
BAO_0000357

>  <data_validity_description>  (59) 
None

>  <activity_id>  (59) 
464479

>  <standard_type>  (59) 
IC50

>  <target_chembl_id>  (59) 
CHEMBL217

>  <data_validity_comment>  (59) 
None

>  <published_value>  (59) 
1.03

>  <document_year>  (59) 
1997

>  <target_pref_name>  (59) 
Dopamine D2 receptor

>  <assay_chembl_id>  (59) 
CHEMBL671650

>  <standard_relation>  (59) 
=

>  <assay_description>  (59) 
Inhibitory concentration against binding of [3H]spiperone to human D2 dopaminergic receptor

>  <published_relation>  (59) 
=

>  <standard_value>  (59) 
1030

>  <qudt_units>  (59) 
http://www.openphacts.org/units/Nanomolar

>  <target_tax_id>  (59) 
9606

>  <bao_label>  (59) 
single protein format

>  <published_units>  (59) 
uM

>  <pchembl_value>  (59) 
5.99

>  <published_type>  (59) 
IC50

>  <activity_comment>  (59) 
None

$$$$

     RDKit          

 31 34  0  0  0  0  0  0  0  0999 V2000
    0.0000    0.0000    0.0000 O   0  0  0  0  0  0  0  0  0  0  0  0
    0.0000    0.0000    0.0000 C   0  0  0  0  0  0  0  0  0  0  0  0
    0.0000    0.0000    0.0000 C   0  0  0  0  0  0  0  0  0  0  0  0
    0.0000    0.0000    0.0000 O   0  0  0  0  0  0  0  0  0  0  0  0
    0.0000    0.0000    0.0000 C   0  0  0  0  0  0  0  0  0  0  0  0
    0.0000    0.0000    0.0000 O   0  0  0  0  0  0  0  0  0  0  0  0
    0.0000    0.0000    0.0000 C   0  0  0  0  0  0  0  0  0  0  0  0
    0.0000    0.0000    0.0000 C   0  0  0  0  0  0  0  0  0  0  0  0
    0.0000    0.0000    0.0000 C   0  0  0  0  0  0  0  0  0  0  0  0
    0.0000    0.0000    0.0000 C   0  0  0  0  0  0  0  0  0  0  0  0
    0.0000    0.0000    0.0000 C   0  0  0  0  0  0  0  0  0  0  0  0
    0.0000    0.0000    0.0000 C   0  0  0  0  0  0  0  0  0  0  0  0
    0.0000    0.0000    0.0000 N   0  0  0  0  0  0  0  0  0  0  0  0
    0.0000    0.0000    0.0000 C   0  0  0  0  0  0  0  0  0  0  0  0
    0.0000    0.0000    0.0000 C   0  0  0  0  0  0  0  0  0  0  0  0
    0.0000    0.0000    0.0000 C   0  0  0  0  0  0  0  0  0  0  0  0
    0.0000    0.0000    0.0000 C   0  0  0  0  0  0  0  0  0  0  0  0
    0.0000    0.0000    0.0000 C   0  0  0  0  0  0  0  0  0  0  0  0
    0.0000    0.0000    0.0000 O   0  0  0  0  0  0  0  0  0  0  0  0
    0.0000    0.0000    0.0000 C   0  0  0  0  0  0  0  0  0  0  0  0
    0.0000    0.0000    0.0000 O   0  0  0  0  0  0  0  0  0  0  0  0
    0.0000    0.0000    0.0000 C   0  0  0  0  0  0  0  0  0  0  0  0
    0.0000    0.0000    0.0000 C   0  0  0  0  0  0  0  0  0  0  0  0
    0.0000    0.0000    0.0000 C   0  0  0  0  0  0  0  0  0  0  0  0
    0.0000    0.0000    0.0000 C   0  0  0  0  0  0  0  0  0  0  0  0
    0.0000    0.0000    0.0000 C   0  0  0  0  0  0  0  0  0  0  0  0
    0.0000    0.0000    0.0000 O   0  0  0  0  0  0  0  0  0  0  0  0
    0.0000    0.0000    0.0000 C   0  0  0  0  0  0  0  0  0  0  0  0
    0.0000    0.0000    0.0000 O   0  0  0  0  0  0  0  0  0  0  0  0
    0.0000    0.0000    0.0000 C   0  0  0  0  0  0  0  0  0  0  0  0
    0.0000    0.0000    0.0000 O   0  0  0  0  0  0  0  0  0  0  0  0
  1  2  1  0
  2  3  1  0
  3  4  1  0
  4  5  1  0
  5  6  1  0
  6  7  1  0
  7  8  2  0
  8  9  1  0
  9 10  2  0
 10 11  1  0
 11 12  1  0
 12 13  1  0
 13 14  1  0
 14 15  1  0
 15 16  1  0
 16 17  2  0
 17 18  1  0
 18 19  1  0
 18 20  2  0
 20 21  1  0
 20 22  1  0
 22 23  2  0
 10 24  1  0
 24 25  2  0
  5 26  1  0
 26 27  1  0
 26 28  1  0
 28 29  1  0
 28 30  1  0
 30 31  1  0
 30  3  1  0
 25  7  1  0
 23 12  1  0
 23 16  1  0
M  END
>  <pIC50>  (60) 
5.62

>  <ChEMBL_ID>  (60) 
CHEMBL2303762

>  <document_journal>  (60) 
Bioorg. Med. Chem. Lett.

>  <bao_endpoint>  (60) 
BAO_0000190

>  <potential_duplicate>  (60) 
False

>  <uo_units>  (60) 
UO_0000065

>  <canonical_smiles>  (60) 
OC[C@H]1O[C@H](Oc2ccc(CC3NCCc4cc(O)c(O)cc34)cc2)[C@H](O)[C@H](O)[C@H]1O

>  <parent_molecule_chembl_id>  (60) 
CHEMBL2303762

>  <assay_type>  (60) 
B

>  <src_id>  (60) 
1

>  <ligand_efficiency>  (60) 
{u'le': u'0.25', u'bei': u'12.96', u'sei': u'3.7', u'lle': u'4.9'}

>  <standard_flag>  (60) 
True

>  <molecule_chembl_id>  (60) 
CHEMBL2303762

>  <target_organism>  (60) 
Homo sapiens

>  <standard_units>  (60) 
nM

>  <record_id>  (60) 
24519

>  <document_chembl_id>  (60) 
CHEMBL1129926

>  <bao_format>  (60) 
BAO_0000357

>  <data_validity_description>  (60) 
None

>  <activity_id>  (60) 
471335

>  <standard_type>  (60) 
IC50

>  <target_chembl_id>  (60) 
CHEMBL217

>  <data_validity_comment>  (60) 
None

>  <published_value>  (60) 
2.42

>  <document_year>  (60) 
1997

>  <target_pref_name>  (60) 
Dopamine D2 receptor

>  <assay_chembl_id>  (60) 
CHEMBL671650

>  <standard_relation>  (60) 
=

>  <assay_description>  (60) 
Inhibitory concentration against binding of [3H]spiperone to human D2 dopaminergic receptor

>  <published_relation>  (60) 
=

>  <standard_value>  (60) 
2420

>  <qudt_units>  (60) 
http://www.openphacts.org/units/Nanomolar

>  <target_tax_id>  (60) 
9606

>  <bao_label>  (60) 
single protein format

>  <published_units>  (60) 
uM

>  <pchembl_value>  (60) 
5.62

>  <published_type>  (60) 
IC50

>  <activity_comment>  (60) 
None

$$$$

     RDKit          

 28 31  0  0  0  0  0  0  0  0999 V2000
    0.0000    0.0000    0.0000 F   0  0  0  0  0  0  0  0  0  0  0  0
    0.0000    0.0000    0.0000 C   0  0  0  0  0  0  0  0  0  0  0  0
    0.0000    0.0000    0.0000 C   0  0  0  0  0  0  0  0  0  0  0  0
    0.0000    0.0000    0.0000 C   0  0  0  0  0  0  0  0  0  0  0  0
    0.0000    0.0000    0.0000 C   0  0  0  0  0  0  0  0  0  0  0  0
    0.0000    0.0000    0.0000 C   0  0  0  0  0  0  0  0  0  0  0  0
    0.0000    0.0000    0.0000 C   0  0  0  0  0  0  0  0  0  0  0  0
    0.0000    0.0000    0.0000 N   0  0  0  0  0  0  0  0  0  0  0  0
    0.0000    0.0000    0.0000 C   0  0  0  0  0  0  0  0  0  0  0  0
    0.0000    0.0000    0.0000 C   0  0  0  0  0  0  0  0  0  0  0  0
    0.0000    0.0000    0.0000 N   0  0  0  0  0  0  0  0  0  0  0  0
    0.0000    0.0000    0.0000 C   0  0  0  0  0  0  0  0  0  0  0  0
    0.0000    0.0000    0.0000 C   0  0  0  0  0  0  0  0  0  0  0  0
    0.0000    0.0000    0.0000 C   0  0  0  0  0  0  0  0  0  0  0  0
    0.0000    0.0000    0.0000 C   0  0  0  0  0  0  0  0  0  0  0  0
    0.0000    0.0000    0.0000 C   0  0  0  0  0  0  0  0  0  0  0  0
    0.0000    0.0000    0.0000 C   0  0  0  0  0  0  0  0  0  0  0  0
    0.0000    0.0000    0.0000 C   0  0  0  0  0  0  0  0  0  0  0  0
    0.0000    0.0000    0.0000 C   0  0  0  0  0  0  0  0  0  0  0  0
    0.0000    0.0000    0.0000 N   0  0  0  0  0  0  0  0  0  0  0  0
    0.0000    0.0000    0.0000 C   0  0  0  0  0  0  0  0  0  0  0  0
    0.0000    0.0000    0.0000 N   0  0  0  0  0  0  0  0  0  0  0  0
    0.0000    0.0000    0.0000 C   0  0  0  0  0  0  0  0  0  0  0  0
    0.0000    0.0000    0.0000 C   0  0  0  0  0  0  0  0  0  0  0  0
    0.0000    0.0000    0.0000 C   0  0  0  0  0  0  0  0  0  0  0  0
    0.0000    0.0000    0.0000 N   0  0  0  0  0  0  0  0  0  0  0  0
    0.0000    0.0000    0.0000 C   0  0  0  0  0  0  0  0  0  0  0  0
    0.0000    0.0000    0.0000 C   0  0  0  0  0  0  0  0  0  0  0  0
  1  2  1  0
  2  3  2  0
  3  4  1  0
  4  5  2  0
  5  6  1  0
  6  7  2  0
  5  8  1  0
  8  9  1  0
  9 10  1  0
 10 11  1  0
 11 12  1  0
 12 13  1  0
 13 14  1  0
 14 15  1  0
 15 16  1  0
 16 17  1  0
 17 18  1  0
 18 19  1  0
 17 20  1  0
 20 21  1  0
 21 22  2  0
 22 23  1  0
 23 24  2  0
 24 25  1  0
 25 26  2  0
 11 27  1  0
 27 28  1  0
  7  2  1  0
 28  8  1  0
 19 14  1  0
 26 21  1  0
M  END
>  <pIC50>  (61) 
7.1

>  <ChEMBL_ID>  (61) 
CHEMBL349034

>  <document_journal>  (61) 
J. Med. Chem.

>  <bao_endpoint>  (61) 
BAO_0000190

>  <potential_duplicate>  (61) 
False

>  <uo_units>  (61) 
UO_0000065

>  <canonical_smiles>  (61) 
Fc1ccc(cc1)N2CCN(CC[C@@H]3CC[C@H](CC3)Nc4ncccn4)CC2

>  <parent_molecule_chembl_id>  (61) 
CHEMBL349034

>  <assay_type>  (61) 
B

>  <src_id>  (61) 
1

>  <ligand_efficiency>  (61) 
{u'le': u'0.35', u'bei': u'18.52', u'sei': u'16.04', u'lle': u'2.87'}

>  <standard_flag>  (61) 
True

>  <molecule_chembl_id>  (61) 
CHEMBL349034

>  <target_organism>  (61) 
Homo sapiens

>  <standard_units>  (61) 
nM

>  <record_id>  (61) 
324112

>  <document_chembl_id>  (61) 
CHEMBL1131565

>  <bao_format>  (61) 
BAO_0000219

>  <data_validity_description>  (61) 
None

>  <activity_id>  (61) 
474590

>  <standard_type>  (61) 
IC50

>  <target_chembl_id>  (61) 
CHEMBL217

>  <data_validity_comment>  (61) 
None

>  <published_value>  (61) 
79

>  <document_year>  (61) 
1998

>  <target_pref_name>  (61) 
Dopamine D2 receptor

>  <assay_chembl_id>  (61) 
CHEMBL670114

>  <standard_relation>  (61) 
=

>  <assay_description>  (61) 
The in vitro intrinsic activity was measured at DA D2 receptor by measuring its ability to increase [3H]thymidine uptake in CHO-K1 cells transfected with the Dopamine receptor D2

>  <published_relation>  (61) 
=

>  <standard_value>  (61) 
79

>  <qudt_units>  (61) 
http://www.openphacts.org/units/Nanomolar

>  <target_tax_id>  (61) 
9606

>  <bao_label>  (61) 
cell-based format

>  <published_units>  (61) 
nM

>  <pchembl_value>  (61) 
7.1

>  <published_type>  (61) 
IC50

>  <activity_comment>  (61) 
None

$$$$

     RDKit          

 29 32  0  0  0  0  0  0  0  0999 V2000
    0.0000    0.0000    0.0000 C   0  0  0  0  0  0  0  0  0  0  0  0
    0.0000    0.0000    0.0000 O   0  0  0  0  0  0  0  0  0  0  0  0
    0.0000    0.0000    0.0000 C   0  0  0  0  0  0  0  0  0  0  0  0
    0.0000    0.0000    0.0000 C   0  0  0  0  0  0  0  0  0  0  0  0
    0.0000    0.0000    0.0000 C   0  0  0  0  0  0  0  0  0  0  0  0
    0.0000    0.0000    0.0000 C   0  0  0  0  0  0  0  0  0  0  0  0
    0.0000    0.0000    0.0000 C   0  0  0  0  0  0  0  0  0  0  0  0
    0.0000    0.0000    0.0000 C   0  0  0  0  0  0  0  0  0  0  0  0
    0.0000    0.0000    0.0000 N   0  0  0  0  0  0  0  0  0  0  0  0
    0.0000    0.0000    0.0000 C   0  0  0  0  0  0  0  0  0  0  0  0
    0.0000    0.0000    0.0000 C   0  0  0  0  0  0  0  0  0  0  0  0
    0.0000    0.0000    0.0000 N   0  0  0  0  0  0  0  0  0  0  0  0
    0.0000    0.0000    0.0000 C   0  0  0  0  0  0  0  0  0  0  0  0
    0.0000    0.0000    0.0000 C   0  0  0  0  0  0  0  0  0  0  0  0
    0.0000    0.0000    0.0000 C   0  0  0  0  0  0  0  0  0  0  0  0
    0.0000    0.0000    0.0000 C   0  0  0  0  0  0  0  0  0  0  0  0
    0.0000    0.0000    0.0000 C   0  0  0  0  0  0  0  0  0  0  0  0
    0.0000    0.0000    0.0000 C   0  0  0  0  0  0  0  0  0  0  0  0
    0.0000    0.0000    0.0000 C   0  0  0  0  0  0  0  0  0  0  0  0
    0.0000    0.0000    0.0000 C   0  0  0  0  0  0  0  0  0  0  0  0
    0.0000    0.0000    0.0000 N   0  0  0  0  0  0  0  0  0  0  0  0
    0.0000    0.0000    0.0000 C   0  0  0  0  0  0  0  0  0  0  0  0
    0.0000    0.0000    0.0000 N   0  0  0  0  0  0  0  0  0  0  0  0
    0.0000    0.0000    0.0000 C   0  0  0  0  0  0  0  0  0  0  0  0
    0.0000    0.0000    0.0000 C   0  0  0  0  0  0  0  0  0  0  0  0
    0.0000    0.0000    0.0000 C   0  0  0  0  0  0  0  0  0  0  0  0
    0.0000    0.0000    0.0000 N   0  0  0  0  0  0  0  0  0  0  0  0
    0.0000    0.0000    0.0000 C   0  0  0  0  0  0  0  0  0  0  0  0
    0.0000    0.0000    0.0000 C   0  0  0  0  0  0  0  0  0  0  0  0
  1  2  1  0
  2  3  1  0
  3  4  2  0
  4  5  1  0
  5  6  2  0
  6  7  1  0
  7  8  2  0
  8  9  1  0
  9 10  1  0
 10 11  1  0
 11 12  1  0
 12 13  1  0
 13 14  1  0
 14 15  1  0
 15 16  1  0
 16 17  1  0
 17 18  1  0
 18 19  1  0
 19 20  1  0
 18 21  1  0
 21 22  1  0
 22 23  2  0
 23 24  1  0
 24 25  2  0
 25 26  1  0
 26 27  2  0
 12 28  1  0
 28 29  1  0
  8  3  1  0
 29  9  1  0
 20 15  1  0
 27 22  1  0
M  END
>  <pIC50>  (62) 
8.0

>  <ChEMBL_ID>  (62) 
CHEMBL164792

>  <document_journal>  (62) 
J. Med. Chem.

>  <bao_endpoint>  (62) 
BAO_0000190

>  <potential_duplicate>  (62) 
False

>  <uo_units>  (62) 
UO_0000065

>  <canonical_smiles>  (62) 
COc1ccccc1N2CCN(CC[C@@H]3CC[C@H](CC3)Nc4ncccn4)CC2

>  <parent_molecule_chembl_id>  (62) 
CHEMBL164792

>  <assay_type>  (62) 
B

>  <src_id>  (62) 
1

>  <ligand_efficiency>  (62) 
{u'le': u'0.38', u'bei': u'20.24', u'sei': u'14.96', u'lle': u'3.99'}

>  <standard_flag>  (62) 
True

>  <molecule_chembl_id>  (62) 
CHEMBL164792

>  <target_organism>  (62) 
Homo sapiens

>  <standard_units>  (62) 
nM

>  <record_id>  (62) 
324115

>  <document_chembl_id>  (62) 
CHEMBL1131565

>  <bao_format>  (62) 
BAO_0000219

>  <data_validity_description>  (62) 
None

>  <activity_id>  (62) 
489046

>  <standard_type>  (62) 
IC50

>  <target_chembl_id>  (62) 
CHEMBL217

>  <data_validity_comment>  (62) 
None

>  <published_value>  (62) 
9.9

>  <document_year>  (62) 
1998

>  <target_pref_name>  (62) 
Dopamine D2 receptor

>  <assay_chembl_id>  (62) 
CHEMBL670114

>  <standard_relation>  (62) 
=

>  <assay_description>  (62) 
The in vitro intrinsic activity was measured at DA D2 receptor by measuring its ability to increase [3H]thymidine uptake in CHO-K1 cells transfected with the Dopamine receptor D2

>  <published_relation>  (62) 
=

>  <standard_value>  (62) 
9.9

>  <qudt_units>  (62) 
http://www.openphacts.org/units/Nanomolar

>  <target_tax_id>  (62) 
9606

>  <bao_label>  (62) 
cell-based format

>  <published_units>  (62) 
nM

>  <pchembl_value>  (62) 
8

>  <published_type>  (62) 
IC50

>  <activity_comment>  (62) 
None

$$$$

     RDKit          

 22 25  0  0  0  0  0  0  0  0999 V2000
    0.0000    0.0000    0.0000 C   0  0  0  0  0  0  0  0  0  0  0  0
    0.0000    0.0000    0.0000 N   0  0  0  0  0  0  0  0  0  0  0  0
    0.0000    0.0000    0.0000 C   0  0  0  0  0  0  0  0  0  0  0  0
    0.0000    0.0000    0.0000 C   0  0  0  0  0  0  0  0  0  0  0  0
    0.0000    0.0000    0.0000 C   0  0  0  0  0  0  0  0  0  0  0  0
    0.0000    0.0000    0.0000 C   0  0  0  0  0  0  0  0  0  0  0  0
    0.0000    0.0000    0.0000 C   0  0  0  0  0  0  0  0  0  0  0  0
    0.0000    0.0000    0.0000 N   0  0  0  0  0  0  0  0  0  0  0  0
    0.0000    0.0000    0.0000 O   0  0  0  0  0  0  0  0  0  0  0  0
    0.0000    0.0000    0.0000 C   0  0  0  0  0  0  0  0  0  0  0  0
    0.0000    0.0000    0.0000 C   0  0  0  0  0  0  0  0  0  0  0  0
    0.0000    0.0000    0.0000 N   0  0  0  0  0  0  0  0  0  0  0  0
    0.0000    0.0000    0.0000 C   0  0  0  0  0  0  0  0  0  0  0  0
    0.0000    0.0000    0.0000 C   0  0  0  0  0  0  0  0  0  0  0  0
    0.0000    0.0000    0.0000 C   0  0  0  0  0  0  0  0  0  0  0  0
    0.0000    0.0000    0.0000 C   0  0  0  0  0  0  0  0  0  0  0  0
    0.0000    0.0000    0.0000 C   0  0  0  0  0  0  0  0  0  0  0  0
    0.0000    0.0000    0.0000 C   0  0  0  0  0  0  0  0  0  0  0  0
    0.0000    0.0000    0.0000 C   0  0  0  0  0  0  0  0  0  0  0  0
    0.0000    0.0000    0.0000 C   0  0  0  0  0  0  0  0  0  0  0  0
    0.0000    0.0000    0.0000 C   0  0  0  0  0  0  0  0  0  0  0  0
    0.0000    0.0000    0.0000 C   0  0  0  0  0  0  0  0  0  0  0  0
  1  2  1  0
  2  3  1  0
  2  4  1  0
  4  5  1  0
  5  6  1  0
  6  7  1  0
  7  8  1  0
  8  9  1  0
  8 10  1  0
 10 11  2  0
 11 12  1  0
 12 13  2  0
 13 14  1  0
 14 15  2  0
 15 16  1  0
 16 17  1  0
 17 18  2  0
 18 19  1  0
 19 20  2  0
 20 21  1  0
 21 22  2  0
  9  5  1  0
 22  7  1  0
 15 10  1  0
 22 17  1  0
M  END
>  <pIC50>  (63) 
5.72

>  <ChEMBL_ID>  (63) 
CHEMBL331077

>  <document_journal>  (63) 
Bioorg. Med. Chem. Lett.

>  <bao_endpoint>  (63) 
BAO_0000190

>  <potential_duplicate>  (63) 
False

>  <uo_units>  (63) 
UO_0000065

>  <canonical_smiles>  (63) 
CN(C)CC1CC2N(O1)c3cnccc3Cc4ccccc24

>  <parent_molecule_chembl_id>  (63) 
CHEMBL331077

>  <assay_type>  (63) 
B

>  <src_id>  (63) 
1

>  <ligand_efficiency>  (63) 
{u'le': u'0.36', u'bei': u'19.36', u'sei': u'20', u'lle': u'3.21'}

>  <standard_flag>  (63) 
True

>  <molecule_chembl_id>  (63) 
CHEMBL331077

>  <target_organism>  (63) 
Homo sapiens

>  <standard_units>  (63) 
nM

>  <record_id>  (63) 
226249

>  <document_chembl_id>  (63) 
CHEMBL1135009

>  <bao_format>  (63) 
BAO_0000357

>  <data_validity_description>  (63) 
None

>  <activity_id>  (63) 
513661

>  <standard_type>  (63) 
IC50

>  <target_chembl_id>  (63) 
CHEMBL217

>  <data_validity_comment>  (63) 
None

>  <published_value>  (63) 
-5.7199999999999998

>  <document_year>  (63) 
2002

>  <target_pref_name>  (63) 
Dopamine D2 receptor

>  <assay_chembl_id>  (63) 
CHEMBL672502

>  <standard_relation>  (63) 
=

>  <assay_description>  (63) 
Binding affinity against Dopamine receptor D2L

>  <published_relation>  (63) 
=

>  <standard_value>  (63) 
1905.46

>  <qudt_units>  (63) 
http://www.openphacts.org/units/Nanomolar

>  <target_tax_id>  (63) 
9606

>  <bao_label>  (63) 
single protein format

>  <published_units>  (63) 
None

>  <pchembl_value>  (63) 
5.72

>  <published_type>  (63) 
Log IC50

>  <activity_comment>  (63) 
None

$$$$

     RDKit          

 23 26  0  0  0  0  0  0  0  0999 V2000
    0.0000    0.0000    0.0000 C   0  0  0  0  0  0  0  0  0  0  0  0
    0.0000    0.0000    0.0000 N   0  0  0  0  0  0  0  0  0  0  0  0
    0.0000    0.0000    0.0000 C   0  0  0  0  0  0  0  0  0  0  0  0
    0.0000    0.0000    0.0000 C   0  0  0  0  0  0  0  0  0  0  0  0
    0.0000    0.0000    0.0000 C   0  0  0  0  0  0  0  0  0  0  0  0
    0.0000    0.0000    0.0000 C   0  0  0  0  0  0  0  0  0  0  0  0
    0.0000    0.0000    0.0000 C   0  0  0  0  0  0  0  0  0  0  0  0
    0.0000    0.0000    0.0000 N   0  0  0  0  0  0  0  0  0  0  0  0
    0.0000    0.0000    0.0000 O   0  0  0  0  0  0  0  0  0  0  0  0
    0.0000    0.0000    0.0000 C   0  0  0  0  0  0  0  0  0  0  0  0
    0.0000    0.0000    0.0000 C   0  0  0  0  0  0  0  0  0  0  0  0
    0.0000    0.0000    0.0000 C   0  0  0  0  0  0  0  0  0  0  0  0
    0.0000    0.0000    0.0000 Cl  0  0  0  0  0  0  0  0  0  0  0  0
    0.0000    0.0000    0.0000 C   0  0  0  0  0  0  0  0  0  0  0  0
    0.0000    0.0000    0.0000 C   0  0  0  0  0  0  0  0  0  0  0  0
    0.0000    0.0000    0.0000 C   0  0  0  0  0  0  0  0  0  0  0  0
    0.0000    0.0000    0.0000 C   0  0  0  0  0  0  0  0  0  0  0  0
    0.0000    0.0000    0.0000 C   0  0  0  0  0  0  0  0  0  0  0  0
    0.0000    0.0000    0.0000 C   0  0  0  0  0  0  0  0  0  0  0  0
    0.0000    0.0000    0.0000 C   0  0  0  0  0  0  0  0  0  0  0  0
    0.0000    0.0000    0.0000 C   0  0  0  0  0  0  0  0  0  0  0  0
    0.0000    0.0000    0.0000 C   0  0  0  0  0  0  0  0  0  0  0  0
    0.0000    0.0000    0.0000 C   0  0  0  0  0  0  0  0  0  0  0  0
  1  2  1  0
  2  3  1  0
  2  4  1  0
  4  5  1  0
  5  6  1  0
  6  7  1  0
  7  8  1  0
  8  9  1  0
  8 10  1  0
 10 11  2  0
 11 12  1  0
 12 13  1  0
 12 14  2  0
 14 15  1  0
 15 16  2  0
 16 17  1  0
 17 18  1  0
 18 19  2  0
 19 20  1  0
 20 21  2  0
 21 22  1  0
 22 23  2  0
  9  5  1  0
 23  7  1  0
 16 10  1  0
 23 18  1  0
M  END
>  <pIC50>  (64) 
8.06

>  <ChEMBL_ID>  (64) 
CHEMBL315772

>  <document_journal>  (64) 
Bioorg. Med. Chem. Lett.

>  <bao_endpoint>  (64) 
BAO_0000190

>  <potential_duplicate>  (64) 
True

>  <uo_units>  (64) 
UO_0000065

>  <canonical_smiles>  (64) 
CN(C)CC1CC2N(O1)c3cc(Cl)ccc3Cc4ccccc24

>  <parent_molecule_chembl_id>  (64) 
CHEMBL315772

>  <assay_type>  (64) 
B

>  <src_id>  (64) 
1

>  <ligand_efficiency>  (64) 
{u'le': u'0.48', u'bei': u'24.51', u'sei': u'51.3', u'lle': u'3.74'}

>  <standard_flag>  (64) 
True

>  <molecule_chembl_id>  (64) 
CHEMBL315772

>  <target_organism>  (64) 
Homo sapiens

>  <standard_units>  (64) 
nM

>  <record_id>  (64) 
226248

>  <document_chembl_id>  (64) 
CHEMBL1135009

>  <bao_format>  (64) 
BAO_0000357

>  <data_validity_description>  (64) 
None

>  <activity_id>  (64) 
537459

>  <standard_type>  (64) 
IC50

>  <target_chembl_id>  (64) 
CHEMBL217

>  <data_validity_comment>  (64) 
None

>  <published_value>  (64) 
-8.06

>  <document_year>  (64) 
2002

>  <target_pref_name>  (64) 
Dopamine D2 receptor

>  <assay_chembl_id>  (64) 
CHEMBL672502

>  <standard_relation>  (64) 
=

>  <assay_description>  (64) 
Binding affinity against Dopamine receptor D2L

>  <published_relation>  (64) 
=

>  <standard_value>  (64) 
8.71

>  <qudt_units>  (64) 
http://www.openphacts.org/units/Nanomolar

>  <target_tax_id>  (64) 
9606

>  <bao_label>  (64) 
single protein format

>  <published_units>  (64) 
None

>  <pchembl_value>  (64) 
8.06

>  <published_type>  (64) 
Log IC50

>  <activity_comment>  (64) 
None

$$$$

     RDKit          

 37 41  0  0  0  0  0  0  0  0999 V2000
    0.0000    0.0000    0.0000 C   0  0  0  0  0  0  0  0  0  0  0  0
    0.0000    0.0000    0.0000 N   0  0  0  0  0  0  0  0  0  0  0  0
    0.0000    0.0000    0.0000 C   0  0  0  0  0  0  0  0  0  0  0  0
    0.0000    0.0000    0.0000 O   0  0  0  0  0  0  0  0  0  0  0  0
    0.0000    0.0000    0.0000 N   0  0  0  0  0  0  0  0  0  0  0  0
    0.0000    0.0000    0.0000 C   0  0  0  0  0  0  0  0  0  0  0  0
    0.0000    0.0000    0.0000 C   0  0  0  0  0  0  0  0  0  0  0  0
    0.0000    0.0000    0.0000 N   0  0  0  0  0  0  0  0  0  0  0  0
    0.0000    0.0000    0.0000 C   0  0  0  0  0  0  0  0  0  0  0  0
    0.0000    0.0000    0.0000 N   0  0  0  0  0  0  0  0  0  0  0  0
    0.0000    0.0000    0.0000 C   0  0  0  0  0  0  0  0  0  0  0  0
    0.0000    0.0000    0.0000 C   0  0  0  0  0  0  0  0  0  0  0  0
    0.0000    0.0000    0.0000 C   0  0  0  0  0  0  0  0  0  0  0  0
    0.0000    0.0000    0.0000 N   0  0  0  0  0  0  0  0  0  0  0  0
    0.0000    0.0000    0.0000 C   0  0  0  0  0  0  0  0  0  0  0  0
    0.0000    0.0000    0.0000 C   0  0  0  0  0  0  0  0  0  0  0  0
    0.0000    0.0000    0.0000 N   0  0  0  0  0  0  0  0  0  0  0  0
    0.0000    0.0000    0.0000 C   0  0  0  0  0  0  0  0  0  0  0  0
    0.0000    0.0000    0.0000 C   0  0  0  0  0  0  0  0  0  0  0  0
    0.0000    0.0000    0.0000 C   0  0  0  0  0  0  0  0  0  0  0  0
    0.0000    0.0000    0.0000 C   0  0  0  0  0  0  0  0  0  0  0  0
    0.0000    0.0000    0.0000 C   0  0  0  0  0  0  0  0  0  0  0  0
    0.0000    0.0000    0.0000 C   0  0  0  0  0  0  0  0  0  0  0  0
    0.0000    0.0000    0.0000 C   0  0  0  0  0  0  0  0  0  0  0  0
    0.0000    0.0000    0.0000 F   0  0  0  0  0  0  0  0  0  0  0  0
    0.0000    0.0000    0.0000 C   0  0  0  0  0  0  0  0  0  0  0  0
    0.0000    0.0000    0.0000 C   0  0  0  0  0  0  0  0  0  0  0  0
    0.0000    0.0000    0.0000 C   0  0  0  0  0  0  0  0  0  0  0  0
    0.0000    0.0000    0.0000 C   0  0  0  0  0  0  0  0  0  0  0  0
    0.0000    0.0000    0.0000 C   0  0  0  0  0  0  0  0  0  0  0  0
    0.0000    0.0000    0.0000 C   0  0  0  0  0  0  0  0  0  0  0  0
    0.0000    0.0000    0.0000 F   0  0  0  0  0  0  0  0  0  0  0  0
    0.0000    0.0000    0.0000 C   0  0  0  0  0  0  0  0  0  0  0  0
    0.0000    0.0000    0.0000 C   0  0  0  0  0  0  0  0  0  0  0  0
    0.0000    0.0000    0.0000 C   0  0  0  0  0  0  0  0  0  0  0  0
    0.0000    0.0000    0.0000 C   0  0  0  0  0  0  0  0  0  0  0  0
    0.0000    0.0000    0.0000 O   0  0  0  0  0  0  0  0  0  0  0  0
  1  2  1  0
  2  3  1  0
  3  4  2  0
  3  5  1  0
  5  6  1  0
  5  7  1  0
  7  8  1  0
  8  9  2  0
  9 10  1  0
 10 11  1  0
 11 12  1  0
 12 13  1  0
 13 14  1  0
 14 15  1  0
 15 16  1  0
 16 17  1  0
 17 18  1  0
 18 19  1  0
 17 20  1  0
 20 21  1  0
 21 22  2  0
 22 23  1  0
 23 24  2  0
 24 25  1  0
 24 26  1  0
 26 27  2  0
 20 28  1  0
 28 29  2  0
 29 30  1  0
 30 31  2  0
 31 32  1  0
 31 33  1  0
 33 34  2  0
 10 35  1  0
 35 36  1  0
 36 37  2  0
 36  2  1  0
 35  7  2  0
 19 14  1  0
 27 21  1  0
 34 28  1  0
M  END
>  <pIC50>  (65) 
7.37

>  <ChEMBL_ID>  (65) 
CHEMBL553331

>  <document_journal>  (65) 
J. Med. Chem.

>  <bao_endpoint>  (65) 
BAO_0000190

>  <potential_duplicate>  (65) 
False

>  <uo_units>  (65) 
UO_0000065

>  <canonical_smiles>  (65) 
Cl.Cl.CN1C(=O)N(C)c2ncn(CCCN3CCN(CC3)C(c4ccc(F)cc4)c5ccc(F)cc5)c2C1=O

>  <parent_molecule_chembl_id>  (65) 
CHEMBL1194812

>  <assay_type>  (65) 
B

>  <src_id>  (65) 
1

>  <ligand_efficiency>  (65) 
{u'le': u'0.27', u'bei': u'14.49', u'sei': u'11.35', u'lle': u'3.7'}

>  <standard_flag>  (65) 
True

>  <molecule_chembl_id>  (65) 
CHEMBL553331

>  <target_organism>  (65) 
Homo sapiens

>  <standard_units>  (65) 
nM

>  <record_id>  (65) 
249001

>  <document_chembl_id>  (65) 
CHEMBL1128457

>  <bao_format>  (65) 
BAO_0000357

>  <data_validity_description>  (65) 
None

>  <activity_id>  (65) 
575546

>  <standard_type>  (65) 
IC50

>  <target_chembl_id>  (65) 
CHEMBL217

>  <data_validity_comment>  (65) 
None

>  <published_value>  (65) 
43

>  <document_year>  (65) 
1995

>  <target_pref_name>  (65) 
Dopamine D2 receptor

>  <assay_chembl_id>  (65) 
CHEMBL671744

>  <standard_relation>  (65) 
=

>  <assay_description>  (65) 
Compound is evaluated for in vitro receptor binding affinity against Dopamine receptor D2

>  <published_relation>  (65) 
=

>  <standard_value>  (65) 
43

>  <qudt_units>  (65) 
http://www.openphacts.org/units/Nanomolar

>  <target_tax_id>  (65) 
9606

>  <bao_label>  (65) 
single protein format

>  <published_units>  (65) 
nM

>  <pchembl_value>  (65) 
7.37

>  <published_type>  (65) 
IC50

>  <activity_comment>  (65) 
None

$$$$

     RDKit          

 35 38  0  0  0  0  0  0  0  0999 V2000
    0.0000    0.0000    0.0000 C   0  0  0  0  0  0  0  0  0  0  0  0
    0.0000    0.0000    0.0000 C   0  0  0  0  0  0  0  0  0  0  0  0
    0.0000    0.0000    0.0000 C   0  0  0  0  0  0  0  0  0  0  0  0
    0.0000    0.0000    0.0000 C   0  0  0  0  0  0  0  0  0  0  0  0
    0.0000    0.0000    0.0000 C   0  0  0  0  0  0  0  0  0  0  0  0
    0.0000    0.0000    0.0000 C   0  0  0  0  0  0  0  0  0  0  0  0
    0.0000    0.0000    0.0000 C   0  0  0  0  0  0  0  0  0  0  0  0
    0.0000    0.0000    0.0000 C   0  0  0  0  0  0  0  0  0  0  0  0
    0.0000    0.0000    0.0000 C   0  0  0  0  0  0  0  0  0  0  0  0
    0.0000    0.0000    0.0000 C   0  0  0  0  0  0  0  0  0  0  0  0
    0.0000    0.0000    0.0000 C   0  0  0  0  0  0  0  0  0  0  0  0
    0.0000    0.0000    0.0000 O   0  0  0  0  0  0  0  0  0  0  0  0
    0.0000    0.0000    0.0000 C   0  0  0  0  0  0  0  0  0  0  0  0
    0.0000    0.0000    0.0000 C   0  0  0  0  0  0  0  0  0  0  0  0
    0.0000    0.0000    0.0000 C   0  0  0  0  0  0  0  0  0  0  0  0
    0.0000    0.0000    0.0000 N   0  0  0  0  0  0  0  0  0  0  0  0
    0.0000    0.0000    0.0000 C   0  0  0  0  0  0  0  0  0  0  0  0
    0.0000    0.0000    0.0000 C   0  0  0  0  0  0  0  0  0  0  0  0
    0.0000    0.0000    0.0000 C   0  0  0  0  0  0  0  0  0  0  0  0
    0.0000    0.0000    0.0000 C   0  0  0  0  0  0  0  0  0  0  0  0
    0.0000    0.0000    0.0000 C   0  0  0  0  0  0  0  0  0  0  0  0
    0.0000    0.0000    0.0000 O   0  0  0  0  0  0  0  0  0  0  0  0
    0.0000    0.0000    0.0000 C   0  0  0  0  0  0  0  0  0  0  0  0
    0.0000    0.0000    0.0000 C   0  0  0  0  0  0  0  0  0  0  0  0
    0.0000    0.0000    0.0000 C   0  0  0  0  0  0  0  0  0  0  0  0
    0.0000    0.0000    0.0000 C   0  0  0  0  0  0  0  0  0  0  0  0
    0.0000    0.0000    0.0000 C   0  0  0  0  0  0  0  0  0  0  0  0
    0.0000    0.0000    0.0000 C   0  0  0  0  0  0  0  0  0  0  0  0
    0.0000    0.0000    0.0000 C   0  0  0  0  0  0  0  0  0  0  0  0
    0.0000    0.0000    0.0000 C   0  0  0  0  0  0  0  0  0  0  0  0
    0.0000    0.0000    0.0000 C   0  0  0  0  0  0  0  0  0  0  0  0
    0.0000    0.0000    0.0000 C   0  0  0  0  0  0  0  0  0  0  0  0
    0.0000    0.0000    0.0000 C   0  0  0  0  0  0  0  0  0  0  0  0
    0.0000    0.0000    0.0000 C   0  0  0  0  0  0  0  0  0  0  0  0
    0.0000    0.0000    0.0000 C   0  0  0  0  0  0  0  0  0  0  0  0
  1  2  1  0
  2  3  1  0
  2  4  1  0
  2  5  1  0
  5  6  2  0
  6  7  1  0
  7  8  2  0
  8  9  1  0
  9 10  2  0
  8 11  1  0
 11 12  2  0
 11 13  1  0
 13 14  1  0
 14 15  1  0
 15 16  1  0
 16 17  1  0
 17 18  1  0
 18 19  1  0
 19 20  1  0
 20 21  1  0
 19 22  1  0
 22 23  1  0
 23 24  1  0
 24 25  2  0
 25 26  1  0
 26 27  2  0
 27 28  1  0
 28 29  2  0
 23 30  1  0
 30 31  2  0
 31 32  1  0
 32 33  2  0
 33 34  1  0
 34 35  2  0
 10  5  1  0
 21 16  1  0
 29 24  1  0
 35 30  1  0
M  END
>  <pIC50>  (66) 
6.58

>  <ChEMBL_ID>  (66) 
CHEMBL305660

>  <document_journal>  (66) 
J. Med. Chem.

>  <bao_endpoint>  (66) 
BAO_0000190

>  <potential_duplicate>  (66) 
False

>  <uo_units>  (66) 
UO_0000065

>  <canonical_smiles>  (66) 
CC(C)(C)c1ccc(cc1)C(=O)CCCN2CCC(CC2)OC(c3ccccc3)c4ccccc4

>  <parent_molecule_chembl_id>  (66) 
CHEMBL305660

>  <assay_type>  (66) 
B

>  <src_id>  (66) 
1

>  <ligand_efficiency>  (66) 
{u'le': u'0.28', u'bei': u'15.36', u'sei': u'24.42', u'lle': u'0.63'}

>  <standard_flag>  (66) 
True

>  <molecule_chembl_id>  (66) 
CHEMBL305660

>  <target_organism>  (66) 
Homo sapiens

>  <standard_units>  (66) 
nM

>  <record_id>  (66) 
249012

>  <document_chembl_id>  (66) 
CHEMBL1128457

>  <bao_format>  (66) 
BAO_0000357

>  <data_validity_description>  (66) 
None

>  <activity_id>  (66) 
576832

>  <standard_type>  (66) 
IC50

>  <target_chembl_id>  (66) 
CHEMBL217

>  <data_validity_comment>  (66) 
None

>  <published_value>  (66) 
61

>  <document_year>  (66) 
1995

>  <target_pref_name>  (66) 
Dopamine D2 receptor

>  <assay_chembl_id>  (66) 
CHEMBL671744

>  <standard_relation>  (66) 
=

>  <assay_description>  (66) 
Compound is evaluated for in vitro receptor binding affinity against Dopamine receptor D2

>  <published_relation>  (66) 
=

>  <standard_value>  (66) 
61

>  <qudt_units>  (66) 
http://www.openphacts.org/units/Nanomolar

>  <target_tax_id>  (66) 
9606

>  <bao_label>  (66) 
single protein format

>  <published_units>  (66) 
nM

>  <pchembl_value>  (66) 
7.22

>  <published_type>  (66) 
IC50

>  <activity_comment>  (66) 
None

$$$$

     RDKit          

 35 39  0  0  0  0  0  0  0  0999 V2000
    0.0000    0.0000    0.0000 C   0  0  0  0  0  0  0  0  0  0  0  0
    0.0000    0.0000    0.0000 N   0  0  0  0  0  0  0  0  0  0  0  0
    0.0000    0.0000    0.0000 C   0  0  0  0  0  0  0  0  0  0  0  0
    0.0000    0.0000    0.0000 O   0  0  0  0  0  0  0  0  0  0  0  0
    0.0000    0.0000    0.0000 N   0  0  0  0  0  0  0  0  0  0  0  0
    0.0000    0.0000    0.0000 C   0  0  0  0  0  0  0  0  0  0  0  0
    0.0000    0.0000    0.0000 C   0  0  0  0  0  0  0  0  0  0  0  0
    0.0000    0.0000    0.0000 N   0  0  0  0  0  0  0  0  0  0  0  0
    0.0000    0.0000    0.0000 C   0  0  0  0  0  0  0  0  0  0  0  0
    0.0000    0.0000    0.0000 N   0  0  0  0  0  0  0  0  0  0  0  0
    0.0000    0.0000    0.0000 C   0  0  0  0  0  0  0  0  0  0  0  0
    0.0000    0.0000    0.0000 C   0  0  0  0  0  0  0  0  0  0  0  0
    0.0000    0.0000    0.0000 C   0  0  0  0  0  0  0  0  0  0  0  0
    0.0000    0.0000    0.0000 N   0  0  0  0  0  0  0  0  0  0  0  0
    0.0000    0.0000    0.0000 C   0  0  0  0  0  0  0  0  0  0  0  0
    0.0000    0.0000    0.0000 C   0  0  0  0  0  0  0  0  0  0  0  0
    0.0000    0.0000    0.0000 C   0  0  0  0  0  0  0  0  0  0  0  0
    0.0000    0.0000    0.0000 C   0  0  0  0  0  0  0  0  0  0  0  0
    0.0000    0.0000    0.0000 C   0  0  0  0  0  0  0  0  0  0  0  0
    0.0000    0.0000    0.0000 C   0  0  0  0  0  0  0  0  0  0  0  0
    0.0000    0.0000    0.0000 C   0  0  0  0  0  0  0  0  0  0  0  0
    0.0000    0.0000    0.0000 C   0  0  0  0  0  0  0  0  0  0  0  0
    0.0000    0.0000    0.0000 C   0  0  0  0  0  0  0  0  0  0  0  0
    0.0000    0.0000    0.0000 C   0  0  0  0  0  0  0  0  0  0  0  0
    0.0000    0.0000    0.0000 C   0  0  0  0  0  0  0  0  0  0  0  0
    0.0000    0.0000    0.0000 C   0  0  0  0  0  0  0  0  0  0  0  0
    0.0000    0.0000    0.0000 C   0  0  0  0  0  0  0  0  0  0  0  0
    0.0000    0.0000    0.0000 C   0  0  0  0  0  0  0  0  0  0  0  0
    0.0000    0.0000    0.0000 C   0  0  0  0  0  0  0  0  0  0  0  0
    0.0000    0.0000    0.0000 C   0  0  0  0  0  0  0  0  0  0  0  0
    0.0000    0.0000    0.0000 C   0  0  0  0  0  0  0  0  0  0  0  0
    0.0000    0.0000    0.0000 C   0  0  0  0  0  0  0  0  0  0  0  0
    0.0000    0.0000    0.0000 C   0  0  0  0  0  0  0  0  0  0  0  0
    0.0000    0.0000    0.0000 C   0  0  0  0  0  0  0  0  0  0  0  0
    0.0000    0.0000    0.0000 O   0  0  0  0  0  0  0  0  0  0  0  0
  1  2  1  0
  2  3  1  0
  3  4  2  0
  3  5  1  0
  5  6  1  0
  5  7  1  0
  7  8  1  0
  8  9  2  0
  9 10  1  0
 10 11  1  0
 11 12  1  0
 12 13  1  0
 13 14  1  0
 14 15  1  0
 15 16  1  0
 16 17  1  0
 17 18  1  0
 18 19  1  0
 17 20  1  0
 20 21  1  0
 21 22  2  0
 22 23  1  0
 23 24  2  0
 24 25  1  0
 25 26  2  0
 20 27  1  0
 27 28  2  0
 28 29  1  0
 29 30  2  0
 30 31  1  0
 31 32  2  0
 10 33  1  0
 33 34  1  0
 34 35  2  0
 34  2  1  0
 33  7  2  0
 19 14  1  0
 26 21  1  0
 32 27  1  0
M  END
>  <pIC50>  (67) 
7.39

>  <ChEMBL_ID>  (67) 
CHEMBL338611

>  <document_journal>  (67) 
J. Med. Chem.

>  <bao_endpoint>  (67) 
BAO_0000190

>  <potential_duplicate>  (67) 
False

>  <uo_units>  (67) 
UO_0000065

>  <canonical_smiles>  (67) 
CN1C(=O)N(C)c2ncn(CCCN3CCC(CC3)C(c4ccccc4)c5ccccc5)c2C1=O.OC(=O)\C=C\C(=O)O

>  <parent_molecule_chembl_id>  (67) 
CHEMBL1184199

>  <assay_type>  (67) 
B

>  <src_id>  (67) 
1

>  <ligand_efficiency>  (67) 
{u'le': u'0.29', u'bei': u'15.66', u'sei': u'11.98', u'lle': u'3.35'}

>  <standard_flag>  (67) 
True

>  <molecule_chembl_id>  (67) 
CHEMBL338611

>  <target_organism>  (67) 
Homo sapiens

>  <standard_units>  (67) 
nM

>  <record_id>  (67) 
248997

>  <document_chembl_id>  (67) 
CHEMBL1128457

>  <bao_format>  (67) 
BAO_0000357

>  <data_validity_description>  (67) 
None

>  <activity_id>  (67) 
590449

>  <standard_type>  (67) 
IC50

>  <target_chembl_id>  (67) 
CHEMBL217

>  <data_validity_comment>  (67) 
None

>  <published_value>  (67) 
41

>  <document_year>  (67) 
1995

>  <target_pref_name>  (67) 
Dopamine D2 receptor

>  <assay_chembl_id>  (67) 
CHEMBL671744

>  <standard_relation>  (67) 
=

>  <assay_description>  (67) 
Compound is evaluated for in vitro receptor binding affinity against Dopamine receptor D2

>  <published_relation>  (67) 
=

>  <standard_value>  (67) 
41

>  <qudt_units>  (67) 
http://www.openphacts.org/units/Nanomolar

>  <target_tax_id>  (67) 
9606

>  <bao_label>  (67) 
single protein format

>  <published_units>  (67) 
nM

>  <pchembl_value>  (67) 
7.39

>  <published_type>  (67) 
IC50

>  <activity_comment>  (67) 
None

$$$$

     RDKit          

 31 34  0  0  0  0  0  0  0  0999 V2000
    0.0000    0.0000    0.0000 C   0  0  0  0  0  0  0  0  0  0  0  0
    0.0000    0.0000    0.0000 O   0  0  0  0  0  0  0  0  0  0  0  0
    0.0000    0.0000    0.0000 C   0  0  0  0  0  0  0  0  0  0  0  0
    0.0000    0.0000    0.0000 C   0  0  0  0  0  0  0  0  0  0  0  0
    0.0000    0.0000    0.0000 C   0  0  0  0  0  0  0  0  0  0  0  0
    0.0000    0.0000    0.0000 C   0  0  0  0  0  0  0  0  0  0  0  0
    0.0000    0.0000    0.0000 C   0  0  0  0  0  0  0  0  0  0  0  0
    0.0000    0.0000    0.0000 C   0  0  0  0  0  0  0  0  0  0  0  0
    0.0000    0.0000    0.0000 O   0  0  0  0  0  0  0  0  0  0  0  0
    0.0000    0.0000    0.0000 C   0  0  0  0  0  0  0  0  0  0  0  0
    0.0000    0.0000    0.0000 C   0  0  0  0  0  0  0  0  0  0  0  0
    0.0000    0.0000    0.0000 C   0  0  0  0  0  0  0  0  0  0  0  0
    0.0000    0.0000    0.0000 N   0  0  0  0  0  0  0  0  0  0  0  0
    0.0000    0.0000    0.0000 C   0  0  0  0  0  0  0  0  0  0  0  0
    0.0000    0.0000    0.0000 C   0  0  0  0  0  0  0  0  0  0  0  0
    0.0000    0.0000    0.0000 C   0  0  0  0  0  0  0  0  0  0  0  0
    0.0000    0.0000    0.0000 C   0  0  0  0  0  0  0  0  0  0  0  0
    0.0000    0.0000    0.0000 C   0  0  0  0  0  0  0  0  0  0  0  0
    0.0000    0.0000    0.0000 C   0  0  0  0  0  0  0  0  0  0  0  0
    0.0000    0.0000    0.0000 N   0  0  0  0  0  0  0  0  0  0  0  0
    0.0000    0.0000    0.0000 O   0  0  0  0  0  0  0  0  0  0  0  0
    0.0000    0.0000    0.0000 C   0  0  0  0  0  0  0  0  0  0  0  0
    0.0000    0.0000    0.0000 C   0  0  0  0  0  0  0  0  0  0  0  0
    0.0000    0.0000    0.0000 C   0  0  0  0  0  0  0  0  0  0  0  0
    0.0000    0.0000    0.0000 F   0  0  0  0  0  0  0  0  0  0  0  0
    0.0000    0.0000    0.0000 C   0  0  0  0  0  0  0  0  0  0  0  0
    0.0000    0.0000    0.0000 C   0  0  0  0  0  0  0  0  0  0  0  0
    0.0000    0.0000    0.0000 C   0  0  0  0  0  0  0  0  0  0  0  0
    0.0000    0.0000    0.0000 C   0  0  0  0  0  0  0  0  0  0  0  0
    0.0000    0.0000    0.0000 O   0  0  0  0  0  0  0  0  0  0  0  0
    0.0000    0.0000    0.0000 C   0  0  0  0  0  0  0  0  0  0  0  0
  1  2  1  0
  2  3  1  0
  3  4  2  0
  4  5  1  0
  5  6  2  0
  6  7  1  0
  7  8  2  0
  8  9  1  0
  9 10  1  0
 10 11  1  0
 11 12  1  0
 12 13  1  0
 13 14  1  0
 14 15  1  0
 15 16  1  0
 16 17  1  0
 17 18  1  0
 16 19  1  0
 19 20  2  0
 20 21  1  0
 21 22  1  0
 22 23  2  0
 23 24  1  0
 24 25  1  0
 24 26  2  0
 26 27  1  0
 27 28  2  0
  5 29  1  0
 29 30  2  0
 29 31  1  0
  8  3  1  0
 18 13  1  0
 28 19  1  0
 28 22  1  0
M  END
>  <pIC50>  (68) 
6.96

>  <ChEMBL_ID>  (68) 
CHEMBL14376

>  <document_journal>  (68) 
J. Med. Chem.

>  <bao_endpoint>  (68) 
BAO_0000190

>  <potential_duplicate>  (68) 
False

>  <uo_units>  (68) 
UO_0000065

>  <canonical_smiles>  (68) 
COc1cc(ccc1OCCCN2CCC(CC2)c3noc4cc(F)ccc34)C(=O)C

>  <parent_molecule_chembl_id>  (68) 
CHEMBL14376

>  <assay_type>  (68) 
B

>  <src_id>  (68) 
1

>  <ligand_efficiency>  (68) 
{u'le': u'0.31', u'bei': u'16.32', u'sei': u'10.74', u'lle': u'2.94'}

>  <standard_flag>  (68) 
True

>  <molecule_chembl_id>  (68) 
CHEMBL14376

>  <target_organism>  (68) 
Homo sapiens

>  <standard_units>  (68) 
nM

>  <record_id>  (68) 
14604

>  <document_chembl_id>  (68) 
CHEMBL1128281

>  <bao_format>  (68) 
BAO_0000357

>  <data_validity_description>  (68) 
None

>  <activity_id>  (68) 
640447

>  <standard_type>  (68) 
IC50

>  <target_chembl_id>  (68) 
CHEMBL217

>  <data_validity_comment>  (68) 
None

>  <published_value>  (68) 
110

>  <document_year>  (68) 
1995

>  <target_pref_name>  (68) 
Dopamine D2 receptor

>  <assay_chembl_id>  (68) 
CHEMBL671343

>  <standard_relation>  (68) 
=

>  <assay_description>  (68) 
Binding affinity against Dopamine receptor D2 was determined using [ [3H]-spiperone radioligand

>  <published_relation>  (68) 
=

>  <standard_value>  (68) 
110

>  <qudt_units>  (68) 
http://www.openphacts.org/units/Nanomolar

>  <target_tax_id>  (68) 
9606

>  <bao_label>  (68) 
single protein format

>  <published_units>  (68) 
nM

>  <pchembl_value>  (68) 
6.96

>  <published_type>  (68) 
IC50

>  <activity_comment>  (68) 
None

$$$$

     RDKit          

 28 31  0  0  0  0  0  0  0  0999 V2000
    0.0000    0.0000    0.0000 O   0  0  0  0  0  0  0  0  0  0  0  0
    0.0000    0.0000    0.0000 C   0  0  0  0  0  0  0  0  0  0  0  0
    0.0000    0.0000    0.0000 C   0  0  0  0  0  0  0  0  0  0  0  0
    0.0000    0.0000    0.0000 C   0  0  0  0  0  0  0  0  0  0  0  0
    0.0000    0.0000    0.0000 C   0  0  0  0  0  0  0  0  0  0  0  0
    0.0000    0.0000    0.0000 C   0  0  0  0  0  0  0  0  0  0  0  0
    0.0000    0.0000    0.0000 C   0  0  0  0  0  0  0  0  0  0  0  0
    0.0000    0.0000    0.0000 C   0  0  0  0  0  0  0  0  0  0  0  0
    0.0000    0.0000    0.0000 C   0  0  0  0  0  0  0  0  0  0  0  0
    0.0000    0.0000    0.0000 C   0  0  0  0  0  0  0  0  0  0  0  0
    0.0000    0.0000    0.0000 O   0  0  0  0  0  0  0  0  0  0  0  0
    0.0000    0.0000    0.0000 N   0  0  0  0  0  0  0  0  0  0  0  0
    0.0000    0.0000    0.0000 C   0  0  0  0  0  0  0  0  0  0  0  0
    0.0000    0.0000    0.0000 C   0  0  0  0  0  0  0  0  0  0  0  0
    0.0000    0.0000    0.0000 C   0  0  0  0  0  0  0  0  0  0  0  0
    0.0000    0.0000    0.0000 C   0  0  0  0  0  0  0  0  0  0  0  0
    0.0000    0.0000    0.0000 N   0  0  0  0  0  0  0  0  0  0  0  0
    0.0000    0.0000    0.0000 C   0  0  0  0  0  0  0  0  0  0  0  0
    0.0000    0.0000    0.0000 C   0  0  0  0  0  0  0  0  0  0  0  0
    0.0000    0.0000    0.0000 C   0  0  0  0  0  0  0  0  0  0  0  0
    0.0000    0.0000    0.0000 O   0  0  0  0  0  0  0  0  0  0  0  0
    0.0000    0.0000    0.0000 C   0  0  0  0  0  0  0  0  0  0  0  0
    0.0000    0.0000    0.0000 C   0  0  0  0  0  0  0  0  0  0  0  0
    0.0000    0.0000    0.0000 C   0  0  0  0  0  0  0  0  0  0  0  0
    0.0000    0.0000    0.0000 C   0  0  0  0  0  0  0  0  0  0  0  0
    0.0000    0.0000    0.0000 C   0  0  0  0  0  0  0  0  0  0  0  0
    0.0000    0.0000    0.0000 C   0  0  0  0  0  0  0  0  0  0  0  0
    0.0000    0.0000    0.0000 C   0  0  0  0  0  0  0  0  0  0  0  0
  1  2  2  0
  2  3  1  0
  3  4  1  0
  4  5  1  0
  5  6  1  0
  6  7  1  0
  7  8  1  0
  4  9  1  0
  9 10  1  0
 10 11  2  0
 10 12  1  0
 12 13  1  0
 13 14  1  0
 14 15  1  0
 15 16  1  0
 16 17  1  0
 17 18  1  0
 18 19  1  0
 19 20  1  0
 20 21  1  0
 21 22  1  0
 22 23  2  0
 23 24  1  0
 24 25  2  0
 25 26  1  0
 26 27  2  0
 27 28  1  0
 12  2  1  0
  8  4  1  0
 28 19  1  0
 27 22  1  0
M  END
>  <pIC50>  (69) 
7.17

>  <ChEMBL_ID>  (69) 
CHEMBL11425

>  <document_journal>  (69) 
Bioorg. Med. Chem. Lett.

>  <bao_endpoint>  (69) 
BAO_0000190

>  <potential_duplicate>  (69) 
False

>  <uo_units>  (69) 
UO_0000065

>  <canonical_smiles>  (69) 
O=C1CC2(CCCC2)CC(=O)N1CCCCNCC3COc4ccccc4C3

>  <parent_molecule_chembl_id>  (69) 
CHEMBL11425

>  <assay_type>  (69) 
B

>  <src_id>  (69) 
1

>  <ligand_efficiency>  (69) 
{u'le': u'0.35', u'bei': u'18.65', u'sei': u'12.23', u'lle': u'4.25'}

>  <standard_flag>  (69) 
True

>  <molecule_chembl_id>  (69) 
CHEMBL11425

>  <target_organism>  (69) 
Homo sapiens

>  <standard_units>  (69) 
nM

>  <record_id>  (69) 
8969

>  <document_chembl_id>  (69) 
CHEMBL1129704

>  <bao_format>  (69) 
BAO_0000357

>  <data_validity_description>  (69) 
None

>  <activity_id>  (69) 
833646

>  <standard_type>  (69) 
IC50

>  <target_chembl_id>  (69) 
CHEMBL217

>  <data_validity_comment>  (69) 
None

>  <published_value>  (69) 
-7.1699999999999999

>  <document_year>  (69) 
1996

>  <target_pref_name>  (69) 
Dopamine D2 receptor

>  <assay_chembl_id>  (69) 
CHEMBL670073

>  <standard_relation>  (69) 
=

>  <assay_description>  (69) 
Binding affinity towards Dopamine receptor D2 by displacement of [3H]-Raclopride.

>  <published_relation>  (69) 
=

>  <standard_value>  (69) 
67.61

>  <qudt_units>  (69) 
http://www.openphacts.org/units/Nanomolar

>  <target_tax_id>  (69) 
9606

>  <bao_label>  (69) 
single protein format

>  <published_units>  (69) 
None

>  <pchembl_value>  (69) 
7.17

>  <published_type>  (69) 
Log IC50

>  <activity_comment>  (69) 
None

$$$$

     RDKit          

 32 36  0  0  0  0  0  0  0  0999 V2000
    0.0000    0.0000    0.0000 C   0  0  0  0  0  0  0  0  0  0  0  0
    0.0000    0.0000    0.0000 O   0  0  0  0  0  0  0  0  0  0  0  0
    0.0000    0.0000    0.0000 C   0  0  0  0  0  0  0  0  0  0  0  0
    0.0000    0.0000    0.0000 C   0  0  0  0  0  0  0  0  0  0  0  0
    0.0000    0.0000    0.0000 C   0  0  0  0  0  0  0  0  0  0  0  0
    0.0000    0.0000    0.0000 C   0  0  0  0  0  0  0  0  0  0  0  0
    0.0000    0.0000    0.0000 C   0  0  0  0  0  0  0  0  0  0  0  0
    0.0000    0.0000    0.0000 O   0  0  0  0  0  0  0  0  0  0  0  0
    0.0000    0.0000    0.0000 C   0  0  0  0  0  0  0  0  0  0  0  0
    0.0000    0.0000    0.0000 C   0  0  0  0  0  0  0  0  0  0  0  0
    0.0000    0.0000    0.0000 C   0  0  0  0  0  0  0  0  0  0  0  0
    0.0000    0.0000    0.0000 C   0  0  0  0  0  0  0  0  0  0  0  0
    0.0000    0.0000    0.0000 C   0  0  0  0  0  0  0  0  0  0  0  0
    0.0000    0.0000    0.0000 N   0  0  0  0  0  0  0  0  0  0  0  0
    0.0000    0.0000    0.0000 C   0  0  0  0  0  0  0  0  0  0  0  0
    0.0000    0.0000    0.0000 C   0  0  0  0  0  0  0  0  0  0  0  0
    0.0000    0.0000    0.0000 C   0  0  0  0  0  0  0  0  0  0  0  0
    0.0000    0.0000    0.0000 C   0  0  0  0  0  0  0  0  0  0  0  0
    0.0000    0.0000    0.0000 N   0  0  0  0  0  0  0  0  0  0  0  0
    0.0000    0.0000    0.0000 C   0  0  0  0  0  0  0  0  0  0  0  0
    0.0000    0.0000    0.0000 O   0  0  0  0  0  0  0  0  0  0  0  0
    0.0000    0.0000    0.0000 C   0  0  0  0  0  0  0  0  0  0  0  0
    0.0000    0.0000    0.0000 C   0  0  0  0  0  0  0  0  0  0  0  0
    0.0000    0.0000    0.0000 C   0  0  0  0  0  0  0  0  0  0  0  0
    0.0000    0.0000    0.0000 C   0  0  0  0  0  0  0  0  0  0  0  0
    0.0000    0.0000    0.0000 C   0  0  0  0  0  0  0  0  0  0  0  0
    0.0000    0.0000    0.0000 C   0  0  0  0  0  0  0  0  0  0  0  0
    0.0000    0.0000    0.0000 C   0  0  0  0  0  0  0  0  0  0  0  0
    0.0000    0.0000    0.0000 C   0  0  0  0  0  0  0  0  0  0  0  0
    0.0000    0.0000    0.0000 O   0  0  0  0  0  0  0  0  0  0  0  0
    0.0000    0.0000    0.0000 C   0  0  0  0  0  0  0  0  0  0  0  0
    0.0000    0.0000    0.0000 C   0  0  0  0  0  0  0  0  0  0  0  0
  1  2  1  0
  2  3  1  0
  3  4  2  0
  4  5  1  0
  5  6  2  0
  6  7  1  0
  7  8  1  0
  8  9  1  0
  9 10  1  0
 10 11  1  0
 11 12  1  0
 12 13  1  0
 13 14  1  0
 14 15  1  0
 15 16  1  0
 16 17  1  0
 17 18  1  0
 18 19  1  0
 19 20  1  0
 20 21  2  0
 20 22  1  0
 22 23  1  0
 23 24  1  0
 24 25  1  0
 25 26  1  0
 26 27  1  0
 23 28  1  0
 28 29  1  0
 29 30  2  0
 10 31  1  0
 31 32  1  0
 32  3  1  0
 32  7  2  0
 14 10  1  0
 29 19  1  0
 27 23  1  0
M  END
>  <pIC50>  (70) 
5.96

>  <ChEMBL_ID>  (70) 
CHEMBL11265

>  <document_journal>  (70) 
Bioorg. Med. Chem. Lett.

>  <bao_endpoint>  (70) 
BAO_0000190

>  <potential_duplicate>  (70) 
False

>  <uo_units>  (70) 
UO_0000065

>  <canonical_smiles>  (70) 
COc1cccc2OCC3(CCCN3CCCCN4C(=O)CC5(CCCC5)CC4=O)Cc12

>  <parent_molecule_chembl_id>  (70) 
CHEMBL11265

>  <assay_type>  (70) 
B

>  <src_id>  (70) 
1

>  <ligand_efficiency>  (70) 
{u'le': u'0.25', u'bei': u'13.53', u'sei': u'10.09', u'lle': u'2.27'}

>  <standard_flag>  (70) 
True

>  <molecule_chembl_id>  (70) 
CHEMBL11265

>  <target_organism>  (70) 
Homo sapiens

>  <standard_units>  (70) 
nM

>  <record_id>  (70) 
8965

>  <document_chembl_id>  (70) 
CHEMBL1129704

>  <bao_format>  (70) 
BAO_0000357

>  <data_validity_description>  (70) 
None

>  <activity_id>  (70) 
836046

>  <standard_type>  (70) 
IC50

>  <target_chembl_id>  (70) 
CHEMBL217

>  <data_validity_comment>  (70) 
None

>  <published_value>  (70) 
-5.96

>  <document_year>  (70) 
1996

>  <target_pref_name>  (70) 
Dopamine D2 receptor

>  <assay_chembl_id>  (70) 
CHEMBL670678

>  <standard_relation>  (70) 
=

>  <assay_description>  (70) 
Compound was evaluated for the binding affinity towards Dopamine receptor D2 by displacement of [3H]SCH-23390.

>  <published_relation>  (70) 
=

>  <standard_value>  (70) 
1096.48

>  <qudt_units>  (70) 
http://www.openphacts.org/units/Nanomolar

>  <target_tax_id>  (70) 
9606

>  <bao_label>  (70) 
single protein format

>  <published_units>  (70) 
None

>  <pchembl_value>  (70) 
5.96

>  <published_type>  (70) 
Log IC50

>  <activity_comment>  (70) 
None

$$$$

     RDKit          

 33 36  0  0  0  0  0  0  0  0999 V2000
    0.0000    0.0000    0.0000 C   0  0  0  0  0  0  0  0  0  0  0  0
    0.0000    0.0000    0.0000 C   0  0  0  0  0  0  0  0  0  0  0  0
    0.0000    0.0000    0.0000 C   0  0  0  0  0  0  0  0  0  0  0  0
    0.0000    0.0000    0.0000 N   0  0  0  0  0  0  0  0  0  0  0  0
    0.0000    0.0000    0.0000 C   0  0  0  0  0  0  0  0  0  0  0  0
    0.0000    0.0000    0.0000 C   0  0  0  0  0  0  0  0  0  0  0  0
    0.0000    0.0000    0.0000 C   0  0  0  0  0  0  0  0  0  0  0  0
    0.0000    0.0000    0.0000 C   0  0  0  0  0  0  0  0  0  0  0  0
    0.0000    0.0000    0.0000 N   0  0  0  0  0  0  0  0  0  0  0  0
    0.0000    0.0000    0.0000 C   0  0  0  0  0  0  0  0  0  0  0  0
    0.0000    0.0000    0.0000 O   0  0  0  0  0  0  0  0  0  0  0  0
    0.0000    0.0000    0.0000 C   0  0  0  0  0  0  0  0  0  0  0  0
    0.0000    0.0000    0.0000 C   0  0  0  0  0  0  0  0  0  0  0  0
    0.0000    0.0000    0.0000 C   0  0  0  0  0  0  0  0  0  0  0  0
    0.0000    0.0000    0.0000 C   0  0  0  0  0  0  0  0  0  0  0  0
    0.0000    0.0000    0.0000 C   0  0  0  0  0  0  0  0  0  0  0  0
    0.0000    0.0000    0.0000 C   0  0  0  0  0  0  0  0  0  0  0  0
    0.0000    0.0000    0.0000 C   0  0  0  0  0  0  0  0  0  0  0  0
    0.0000    0.0000    0.0000 C   0  0  0  0  0  0  0  0  0  0  0  0
    0.0000    0.0000    0.0000 O   0  0  0  0  0  0  0  0  0  0  0  0
    0.0000    0.0000    0.0000 C   0  0  0  0  0  0  0  0  0  0  0  0
    0.0000    0.0000    0.0000 C   0  0  0  0  0  0  0  0  0  0  0  0
    0.0000    0.0000    0.0000 C   0  0  0  0  0  0  0  0  0  0  0  0
    0.0000    0.0000    0.0000 O   0  0  0  0  0  0  0  0  0  0  0  0
    0.0000    0.0000    0.0000 C   0  0  0  0  0  0  0  0  0  0  0  0
    0.0000    0.0000    0.0000 C   0  0  0  0  0  0  0  0  0  0  0  0
    0.0000    0.0000    0.0000 C   0  0  0  0  0  0  0  0  0  0  0  0
    0.0000    0.0000    0.0000 C   0  0  0  0  0  0  0  0  0  0  0  0
    0.0000    0.0000    0.0000 C   0  0  0  0  0  0  0  0  0  0  0  0
    0.0000    0.0000    0.0000 O   0  0  0  0  0  0  0  0  0  0  0  0
    0.0000    0.0000    0.0000 C   0  0  0  0  0  0  0  0  0  0  0  0
    0.0000    0.0000    0.0000 C   0  0  0  0  0  0  0  0  0  0  0  0
    0.0000    0.0000    0.0000 C   0  0  0  0  0  0  0  0  0  0  0  0
  1  2  1  0
  2  3  1  0
  3  4  1  0
  4  5  1  0
  5  6  1  0
  6  7  1  0
  7  8  1  0
  8  9  1  0
  9 10  1  0
 10 11  2  0
 10 12  1  0
 12 13  1  0
 13 14  1  0
 14 15  1  0
 15 16  1  0
 16 17  1  0
 13 18  1  0
 18 19  1  0
 19 20  2  0
  4 21  1  0
 21 22  1  0
 22 23  1  0
 23 24  1  0
 24 25  1  0
 25 26  2  0
 26 27  1  0
 27 28  2  0
 28 29  1  0
 29 30  1  0
 30 31  1  0
 29 32  2  0
 32 33  1  0
 19  9  1  0
 17 13  1  0
 33 22  1  0
 32 25  1  0
M  END
>  <pIC50>  (71) 
5.75

>  <ChEMBL_ID>  (71) 
CHEMBL417608

>  <document_journal>  (71) 
Bioorg. Med. Chem. Lett.

>  <bao_endpoint>  (71) 
BAO_0000190

>  <potential_duplicate>  (71) 
False

>  <uo_units>  (71) 
UO_0000065

>  <canonical_smiles>  (71) 
CCCN(CCCCN1C(=O)CC2(CCCC2)CC1=O)CC3COc4cccc(OC)c4C3

>  <parent_molecule_chembl_id>  (71) 
CHEMBL417608

>  <assay_type>  (71) 
B

>  <src_id>  (71) 
1

>  <ligand_efficiency>  (71) 
{u'le': u'0.24', u'bei': u'12.59', u'sei': u'9.73', u'lle': u'1.44'}

>  <standard_flag>  (71) 
True

>  <molecule_chembl_id>  (71) 
CHEMBL417608

>  <target_organism>  (71) 
Homo sapiens

>  <standard_units>  (71) 
nM

>  <record_id>  (71) 
8968

>  <document_chembl_id>  (71) 
CHEMBL1129704

>  <bao_format>  (71) 
BAO_0000357

>  <data_validity_description>  (71) 
None

>  <activity_id>  (71) 
837255

>  <standard_type>  (71) 
IC50

>  <target_chembl_id>  (71) 
CHEMBL217

>  <data_validity_comment>  (71) 
None

>  <published_value>  (71) 
-5.75

>  <document_year>  (71) 
1996

>  <target_pref_name>  (71) 
Dopamine D2 receptor

>  <assay_chembl_id>  (71) 
CHEMBL670073

>  <standard_relation>  (71) 
=

>  <assay_description>  (71) 
Binding affinity towards Dopamine receptor D2 by displacement of [3H]-Raclopride.

>  <published_relation>  (71) 
=

>  <standard_value>  (71) 
1778.28

>  <qudt_units>  (71) 
http://www.openphacts.org/units/Nanomolar

>  <target_tax_id>  (71) 
9606

>  <bao_label>  (71) 
single protein format

>  <published_units>  (71) 
None

>  <pchembl_value>  (71) 
5.75

>  <published_type>  (71) 
Log IC50

>  <activity_comment>  (71) 
None

$$$$

     RDKit          

 30 33  0  0  0  0  0  0  0  0999 V2000
    0.0000    0.0000    0.0000 C   0  0  0  0  0  0  0  0  0  0  0  0
    0.0000    0.0000    0.0000 O   0  0  0  0  0  0  0  0  0  0  0  0
    0.0000    0.0000    0.0000 C   0  0  0  0  0  0  0  0  0  0  0  0
    0.0000    0.0000    0.0000 C   0  0  0  0  0  0  0  0  0  0  0  0
    0.0000    0.0000    0.0000 C   0  0  0  0  0  0  0  0  0  0  0  0
    0.0000    0.0000    0.0000 C   0  0  0  0  0  0  0  0  0  0  0  0
    0.0000    0.0000    0.0000 C   0  0  0  0  0  0  0  0  0  0  0  0
    0.0000    0.0000    0.0000 O   0  0  0  0  0  0  0  0  0  0  0  0
    0.0000    0.0000    0.0000 C   0  0  0  0  0  0  0  0  0  0  0  0
    0.0000    0.0000    0.0000 C   0  0  0  0  0  0  0  0  0  0  0  0
    0.0000    0.0000    0.0000 C   0  0  0  0  0  0  0  0  0  0  0  0
    0.0000    0.0000    0.0000 N   0  0  0  0  0  0  0  0  0  0  0  0
    0.0000    0.0000    0.0000 C   0  0  0  0  0  0  0  0  0  0  0  0
    0.0000    0.0000    0.0000 C   0  0  0  0  0  0  0  0  0  0  0  0
    0.0000    0.0000    0.0000 C   0  0  0  0  0  0  0  0  0  0  0  0
    0.0000    0.0000    0.0000 C   0  0  0  0  0  0  0  0  0  0  0  0
    0.0000    0.0000    0.0000 N   0  0  0  0  0  0  0  0  0  0  0  0
    0.0000    0.0000    0.0000 C   0  0  0  0  0  0  0  0  0  0  0  0
    0.0000    0.0000    0.0000 O   0  0  0  0  0  0  0  0  0  0  0  0
    0.0000    0.0000    0.0000 C   0  0  0  0  0  0  0  0  0  0  0  0
    0.0000    0.0000    0.0000 C   0  0  0  0  0  0  0  0  0  0  0  0
    0.0000    0.0000    0.0000 C   0  0  0  0  0  0  0  0  0  0  0  0
    0.0000    0.0000    0.0000 C   0  0  0  0  0  0  0  0  0  0  0  0
    0.0000    0.0000    0.0000 C   0  0  0  0  0  0  0  0  0  0  0  0
    0.0000    0.0000    0.0000 C   0  0  0  0  0  0  0  0  0  0  0  0
    0.0000    0.0000    0.0000 C   0  0  0  0  0  0  0  0  0  0  0  0
    0.0000    0.0000    0.0000 C   0  0  0  0  0  0  0  0  0  0  0  0
    0.0000    0.0000    0.0000 O   0  0  0  0  0  0  0  0  0  0  0  0
    0.0000    0.0000    0.0000 C   0  0  0  0  0  0  0  0  0  0  0  0
    0.0000    0.0000    0.0000 C   0  0  0  0  0  0  0  0  0  0  0  0
  1  2  1  0
  2  3  1  0
  3  4  2  0
  4  5  1  0
  5  6  2  0
  6  7  1  0
  7  8  1  0
  8  9  1  0
  9 10  1  0
 10 11  1  0
 11 12  1  0
 12 13  1  0
 13 14  1  0
 14 15  1  0
 15 16  1  0
 16 17  1  0
 17 18  1  0
 18 19  2  0
 18 20  1  0
 20 21  1  0
 21 22  1  0
 22 23  1  0
 23 24  1  0
 24 25  1  0
 21 26  1  0
 26 27  1  0
 27 28  2  0
 10 29  1  0
 29 30  1  0
 30  3  1  0
 30  7  2  0
 27 17  1  0
 25 21  1  0
M  END
>  <pIC50>  (72) 
7.53

>  <ChEMBL_ID>  (72) 
CHEMBL416523

>  <document_journal>  (72) 
Bioorg. Med. Chem. Lett.

>  <bao_endpoint>  (72) 
BAO_0000190

>  <potential_duplicate>  (72) 
False

>  <uo_units>  (72) 
UO_0000065

>  <canonical_smiles>  (72) 
COc1cccc2OCC(CNCCCCN3C(=O)CC4(CCCC4)CC3=O)Cc12

>  <parent_molecule_chembl_id>  (72) 
CHEMBL416523

>  <assay_type>  (72) 
B

>  <src_id>  (72) 
1

>  <ligand_efficiency>  (72) 
{u'le': u'0.34', u'bei': u'18.16', u'sei': u'11.09', u'lle': u'4.63'}

>  <standard_flag>  (72) 
True

>  <molecule_chembl_id>  (72) 
CHEMBL416523

>  <target_organism>  (72) 
Homo sapiens

>  <standard_units>  (72) 
nM

>  <record_id>  (72) 
8961

>  <document_chembl_id>  (72) 
CHEMBL1129704

>  <bao_format>  (72) 
BAO_0000357

>  <data_validity_description>  (72) 
None

>  <activity_id>  (72) 
852693

>  <standard_type>  (72) 
IC50

>  <target_chembl_id>  (72) 
CHEMBL217

>  <data_validity_comment>  (72) 
None

>  <published_value>  (72) 
-7.5300000000000002

>  <document_year>  (72) 
1996

>  <target_pref_name>  (72) 
Dopamine D2 receptor

>  <assay_chembl_id>  (72) 
CHEMBL670073

>  <standard_relation>  (72) 
=

>  <assay_description>  (72) 
Binding affinity towards Dopamine receptor D2 by displacement of [3H]-Raclopride.

>  <published_relation>  (72) 
=

>  <standard_value>  (72) 
29.51

>  <qudt_units>  (72) 
http://www.openphacts.org/units/Nanomolar

>  <target_tax_id>  (72) 
9606

>  <bao_label>  (72) 
single protein format

>  <published_units>  (72) 
None

>  <pchembl_value>  (72) 
7.53

>  <published_type>  (72) 
Log IC50

>  <activity_comment>  (72) 
None

$$$$

     RDKit          

 20 21  0  0  0  0  0  0  0  0999 V2000
    0.0000    0.0000    0.0000 C   0  0  0  0  0  0  0  0  0  0  0  0
    0.0000    0.0000    0.0000 C   0  0  0  0  0  0  0  0  0  0  0  0
    0.0000    0.0000    0.0000 C   0  0  0  0  0  0  0  0  0  0  0  0
    0.0000    0.0000    0.0000 N   0  0  0  0  0  0  0  0  0  0  0  0
    0.0000    0.0000    0.0000 C   0  0  0  0  0  0  0  0  0  0  0  0
    0.0000    0.0000    0.0000 C   0  0  0  0  0  0  0  0  0  0  0  0
    0.0000    0.0000    0.0000 C   0  0  0  0  0  0  0  0  0  0  0  0
    0.0000    0.0000    0.0000 C   0  0  0  0  0  0  0  0  0  0  0  0
    0.0000    0.0000    0.0000 C   0  0  0  0  0  0  0  0  0  0  0  0
    0.0000    0.0000    0.0000 C   0  0  0  0  0  0  0  0  0  0  0  0
    0.0000    0.0000    0.0000 O   0  0  0  0  0  0  0  0  0  0  0  0
    0.0000    0.0000    0.0000 C   0  0  0  0  0  0  0  0  0  0  0  0
    0.0000    0.0000    0.0000 C   0  0  0  0  0  0  0  0  0  0  0  0
    0.0000    0.0000    0.0000 C   0  0  0  0  0  0  0  0  0  0  0  0
    0.0000    0.0000    0.0000 C   0  0  0  0  0  0  0  0  0  0  0  0
    0.0000    0.0000    0.0000 C   0  0  0  0  0  0  0  0  0  0  0  0
    0.0000    0.0000    0.0000 O   0  0  0  0  0  0  0  0  0  0  0  0
    0.0000    0.0000    0.0000 C   0  0  0  0  0  0  0  0  0  0  0  0
    0.0000    0.0000    0.0000 C   0  0  0  0  0  0  0  0  0  0  0  0
    0.0000    0.0000    0.0000 C   0  0  0  0  0  0  0  0  0  0  0  0
  1  2  1  0
  2  3  1  0
  3  4  1  0
  4  5  1  0
  5  6  1  0
  6  7  1  0
  4  8  1  0
  8  9  1  0
  9 10  1  0
 10 11  1  0
 11 12  1  0
 12 13  2  0
 13 14  1  0
 14 15  2  0
 15 16  1  0
 16 17  1  0
 17 18  1  0
 16 19  2  0
 19 20  1  0
 20  9  1  0
 19 12  1  0
M  END
>  <pIC50>  (73) 
5.59

>  <ChEMBL_ID>  (73) 
CHEMBL11262

>  <document_journal>  (73) 
Bioorg. Med. Chem. Lett.

>  <bao_endpoint>  (73) 
BAO_0000190

>  <potential_duplicate>  (73) 
False

>  <uo_units>  (73) 
UO_0000065

>  <canonical_smiles>  (73) 
CCCN(CCC)CC1COc2cccc(OC)c2C1

>  <parent_molecule_chembl_id>  (73) 
CHEMBL11262

>  <assay_type>  (73) 
B

>  <src_id>  (73) 
1

>  <ligand_efficiency>  (73) 
{u'le': u'0.38', u'bei': u'20.15', u'sei': u'25.76', u'lle': u'1.74'}

>  <standard_flag>  (73) 
True

>  <molecule_chembl_id>  (73) 
CHEMBL11262

>  <target_organism>  (73) 
Homo sapiens

>  <standard_units>  (73) 
nM

>  <record_id>  (73) 
8970

>  <document_chembl_id>  (73) 
CHEMBL1129704

>  <bao_format>  (73) 
BAO_0000357

>  <data_validity_description>  (73) 
None

>  <activity_id>  (73) 
852699

>  <standard_type>  (73) 
IC50

>  <target_chembl_id>  (73) 
CHEMBL217

>  <data_validity_comment>  (73) 
None

>  <published_value>  (73) 
-5.5899999999999999

>  <document_year>  (73) 
1996

>  <target_pref_name>  (73) 
Dopamine D2 receptor

>  <assay_chembl_id>  (73) 
CHEMBL670073

>  <standard_relation>  (73) 
=

>  <assay_description>  (73) 
Binding affinity towards Dopamine receptor D2 by displacement of [3H]-Raclopride.

>  <published_relation>  (73) 
=

>  <standard_value>  (73) 
2570.4

>  <qudt_units>  (73) 
http://www.openphacts.org/units/Nanomolar

>  <target_tax_id>  (73) 
9606

>  <bao_label>  (73) 
single protein format

>  <published_units>  (73) 
None

>  <pchembl_value>  (73) 
5.59

>  <published_type>  (73) 
Log IC50

>  <activity_comment>  (73) 
None

$$$$

     RDKit          

 32 35  0  0  0  0  0  0  0  0999 V2000
    0.0000    0.0000    0.0000 C   0  0  0  0  0  0  0  0  0  0  0  0
    0.0000    0.0000    0.0000 C   0  0  0  0  0  0  0  0  0  0  0  0
    0.0000    0.0000    0.0000 C   0  0  0  0  0  0  0  0  0  0  0  0
    0.0000    0.0000    0.0000 N   0  0  0  0  0  0  0  0  0  0  0  0
    0.0000    0.0000    0.0000 C   0  0  0  0  0  0  0  0  0  0  0  0
    0.0000    0.0000    0.0000 C   0  0  0  0  0  0  0  0  0  0  0  0
    0.0000    0.0000    0.0000 C   0  0  0  0  0  0  0  0  0  0  0  0
    0.0000    0.0000    0.0000 C   0  0  0  0  0  0  0  0  0  0  0  0
    0.0000    0.0000    0.0000 N   0  0  0  0  0  0  0  0  0  0  0  0
    0.0000    0.0000    0.0000 C   0  0  0  0  0  0  0  0  0  0  0  0
    0.0000    0.0000    0.0000 O   0  0  0  0  0  0  0  0  0  0  0  0
    0.0000    0.0000    0.0000 C   0  0  0  0  0  0  0  0  0  0  0  0
    0.0000    0.0000    0.0000 C   0  0  0  0  0  0  0  0  0  0  0  0
    0.0000    0.0000    0.0000 C   0  0  0  0  0  0  0  0  0  0  0  0
    0.0000    0.0000    0.0000 C   0  0  0  0  0  0  0  0  0  0  0  0
    0.0000    0.0000    0.0000 C   0  0  0  0  0  0  0  0  0  0  0  0
    0.0000    0.0000    0.0000 C   0  0  0  0  0  0  0  0  0  0  0  0
    0.0000    0.0000    0.0000 C   0  0  0  0  0  0  0  0  0  0  0  0
    0.0000    0.0000    0.0000 C   0  0  0  0  0  0  0  0  0  0  0  0
    0.0000    0.0000    0.0000 O   0  0  0  0  0  0  0  0  0  0  0  0
    0.0000    0.0000    0.0000 C   0  0  0  0  0  0  0  0  0  0  0  0
    0.0000    0.0000    0.0000 C   0  0  0  0  0  0  0  0  0  0  0  0
    0.0000    0.0000    0.0000 O   0  0  0  0  0  0  0  0  0  0  0  0
    0.0000    0.0000    0.0000 C   0  0  0  0  0  0  0  0  0  0  0  0
    0.0000    0.0000    0.0000 C   0  0  0  0  0  0  0  0  0  0  0  0
    0.0000    0.0000    0.0000 C   0  0  0  0  0  0  0  0  0  0  0  0
    0.0000    0.0000    0.0000 C   0  0  0  0  0  0  0  0  0  0  0  0
    0.0000    0.0000    0.0000 C   0  0  0  0  0  0  0  0  0  0  0  0
    0.0000    0.0000    0.0000 O   0  0  0  0  0  0  0  0  0  0  0  0
    0.0000    0.0000    0.0000 C   0  0  0  0  0  0  0  0  0  0  0  0
    0.0000    0.0000    0.0000 C   0  0  0  0  0  0  0  0  0  0  0  0
    0.0000    0.0000    0.0000 C   0  0  0  0  0  0  0  0  0  0  0  0
  1  2  1  0
  2  3  1  0
  3  4  1  0
  4  5  1  0
  5  6  1  0
  6  7  1  0
  7  8  1  0
  8  9  1  0
  9 10  1  0
 10 11  2  0
 10 12  1  0
 12 13  1  0
 13 14  1  0
 14 15  1  0
 15 16  1  0
 16 17  1  0
 13 18  1  0
 18 19  1  0
 19 20  2  0
  4 21  1  0
 21 22  1  0
 22 23  1  0
 23 24  1  0
 24 25  2  0
 25 26  1  0
 26 27  2  0
 27 28  1  0
 28 29  1  0
 29 30  1  0
 28 31  2  0
 31 32  1  0
 19  9  1  0
 17 13  1  0
 32 21  1  0
 31 24  1  0
M  END
>  <pIC50>  (74) 
8.0

>  <ChEMBL_ID>  (74) 
CHEMBL11592

>  <document_journal>  (74) 
Bioorg. Med. Chem. Lett.

>  <bao_endpoint>  (74) 
BAO_0000190

>  <potential_duplicate>  (74) 
False

>  <uo_units>  (74) 
UO_0000065

>  <canonical_smiles>  (74) 
CCCN(CCCCN1C(=O)CC2(CCCC2)CC1=O)C3COc4cccc(OC)c4C3

>  <parent_molecule_chembl_id>  (74) 
CHEMBL11592

>  <assay_type>  (74) 
B

>  <src_id>  (74) 
1

>  <ligand_efficiency>  (74) 
{u'le': u'0.34', u'bei': u'18.08', u'sei': u'13.54', u'lle': u'3.76'}

>  <standard_flag>  (74) 
True

>  <molecule_chembl_id>  (74) 
CHEMBL11592

>  <target_organism>  (74) 
Homo sapiens

>  <standard_units>  (74) 
nM

>  <record_id>  (74) 
8964

>  <document_chembl_id>  (74) 
CHEMBL1129704

>  <bao_format>  (74) 
BAO_0000357

>  <data_validity_description>  (74) 
None

>  <activity_id>  (74) 
864198

>  <standard_type>  (74) 
IC50

>  <target_chembl_id>  (74) 
CHEMBL217

>  <data_validity_comment>  (74) 
None

>  <published_value>  (74) 
-8

>  <document_year>  (74) 
1996

>  <target_pref_name>  (74) 
Dopamine D2 receptor

>  <assay_chembl_id>  (74) 
CHEMBL670073

>  <standard_relation>  (74) 
=

>  <assay_description>  (74) 
Binding affinity towards Dopamine receptor D2 by displacement of [3H]-Raclopride.

>  <published_relation>  (74) 
=

>  <standard_value>  (74) 
10

>  <qudt_units>  (74) 
http://www.openphacts.org/units/Nanomolar

>  <target_tax_id>  (74) 
9606

>  <bao_label>  (74) 
single protein format

>  <published_units>  (74) 
None

>  <pchembl_value>  (74) 
8

>  <published_type>  (74) 
Log IC50

>  <activity_comment>  (74) 
None

$$$$

     RDKit          

 38 41  0  0  0  0  0  0  0  0999 V2000
    0.0000    0.0000    0.0000 F   0  0  0  0  0  0  0  0  0  0  0  0
    0.0000    0.0000    0.0000 C   0  0  0  0  0  0  0  0  0  0  0  0
    0.0000    0.0000    0.0000 C   0  0  0  0  0  0  0  0  0  0  0  0
    0.0000    0.0000    0.0000 C   0  0  0  0  0  0  0  0  0  0  0  0
    0.0000    0.0000    0.0000 C   0  0  0  0  0  0  0  0  0  0  0  0
    0.0000    0.0000    0.0000 C   0  0  0  0  0  0  0  0  0  0  0  0
    0.0000    0.0000    0.0000 C   0  0  0  0  0  0  0  0  0  0  0  0
    0.0000    0.0000    0.0000 C   0  0  0  0  0  0  0  0  0  0  0  0
    0.0000    0.0000    0.0000 C   0  0  0  0  0  0  0  0  0  0  0  0
    0.0000    0.0000    0.0000 C   0  0  0  0  0  0  0  0  0  0  0  0
    0.0000    0.0000    0.0000 C   0  0  0  0  0  0  0  0  0  0  0  0
    0.0000    0.0000    0.0000 N   0  0  0  0  0  0  0  0  0  0  0  0
    0.0000    0.0000    0.0000 C   0  0  0  0  0  0  0  0  0  0  0  0
    0.0000    0.0000    0.0000 C   0  0  0  0  0  0  0  0  0  0  0  0
    0.0000    0.0000    0.0000 C   0  0  0  0  0  0  0  0  0  0  0  0
    0.0000    0.0000    0.0000 C   0  0  0  0  0  0  0  0  0  0  0  0
    0.0000    0.0000    0.0000 C   0  0  0  0  0  0  0  0  0  0  0  0
    0.0000    0.0000    0.0000 N   0  0  0  0  0  0  0  0  0  0  0  0
    0.0000    0.0000    0.0000 C   0  0  0  0  0  0  0  0  0  0  0  0
    0.0000    0.0000    0.0000 O   0  0  0  0  0  0  0  0  0  0  0  0
    0.0000    0.0000    0.0000 O   0  0  0  0  0  0  0  0  0  0  0  0
    0.0000    0.0000    0.0000 C   0  0  0  0  0  0  0  0  0  0  0  0
    0.0000    0.0000    0.0000 C   0  0  0  0  0  0  0  0  0  0  0  0
    0.0000    0.0000    0.0000 C   0  0  0  0  0  0  0  0  0  0  0  0
    0.0000    0.0000    0.0000 C   0  0  0  0  0  0  0  0  0  0  0  0
    0.0000    0.0000    0.0000 C   0  0  0  0  0  0  0  0  0  0  0  0
    0.0000    0.0000    0.0000 C   0  0  0  0  0  0  0  0  0  0  0  0
    0.0000    0.0000    0.0000 C   0  0  0  0  0  0  0  0  0  0  0  0
    0.0000    0.0000    0.0000 C   0  0  0  0  0  0  0  0  0  0  0  0
    0.0000    0.0000    0.0000 C   0  0  0  0  0  0  0  0  0  0  0  0
    0.0000    0.0000    0.0000 N   0  0  0  0  0  0  0  0  0  0  0  0
    0.0000    0.0000    0.0000 C   0  0  0  0  0  0  0  0  0  0  0  0
    0.0000    0.0000    0.0000 C   0  0  0  0  0  0  0  0  0  0  0  0
    0.0000    0.0000    0.0000 C   0  0  0  0  0  0  0  0  0  0  0  0
    0.0000    0.0000    0.0000 C   0  0  0  0  0  0  0  0  0  0  0  0
    0.0000    0.0000    0.0000 F   0  0  0  0  0  0  0  0  0  0  0  0
    0.0000    0.0000    0.0000 C   0  0  0  0  0  0  0  0  0  0  0  0
    0.0000    0.0000    0.0000 C   0  0  0  0  0  0  0  0  0  0  0  0
  1  2  1  0
  2  3  2  0
  3  4  1  0
  4  5  2  0
  5  6  1  0
  6  7  2  0
  5  8  1  0
  8  9  1  0
  9 10  1  0
 10 11  1  0
 11 12  1  0
 12 13  1  0
 13 14  1  0
 14 15  1  0
 15 16  1  0
 16 17  1  0
 15 18  1  0
 18 19  1  0
 19 20  2  0
 19 21  1  0
 21 22  1  0
 22 23  1  0
 23 24  1  0
 24 25  2  0
 25 26  1  0
 26 27  2  0
 27 28  1  0
 28 29  2  0
 27 30  1  0
 30 31  3  0
  8 32  1  0
 32 33  2  0
 33 34  1  0
 34 35  2  0
 35 36  1  0
 35 37  1  0
 37 38  2  0
  7  2  1  0
 17 12  1  0
 29 24  1  0
 38 32  1  0
M  END
>  <pIC50>  (75) 
6.26

>  <ChEMBL_ID>  (75) 
CHEMBL116463

>  <document_journal>  (75) 
J. Med. Chem.

>  <bao_endpoint>  (75) 
BAO_0000190

>  <potential_duplicate>  (75) 
False

>  <uo_units>  (75) 
UO_0000065

>  <canonical_smiles>  (75) 
Fc1ccc(cc1)C(CCCN2CCC(CC2)NC(=O)OCCc3ccc(cc3)C#N)c4ccc(F)cc4

>  <parent_molecule_chembl_id>  (75) 
CHEMBL116463

>  <assay_type>  (75) 
B

>  <src_id>  (75) 
1

>  <ligand_efficiency>  (75) 
{u'le': u'0.22', u'bei': u'12.09', u'sei': u'9.58', u'lle': u'-0.16'}

>  <standard_flag>  (75) 
True

>  <molecule_chembl_id>  (75) 
CHEMBL116463

>  <target_organism>  (75) 
Homo sapiens

>  <standard_units>  (75) 
nM

>  <record_id>  (75) 
216610

>  <document_chembl_id>  (75) 
CHEMBL1134625

>  <bao_format>  (75) 
BAO_0000357

>  <data_validity_description>  (75) 
None

>  <activity_id>  (75) 
949648

>  <standard_type>  (75) 
IC50

>  <target_chembl_id>  (75) 
CHEMBL217

>  <data_validity_comment>  (75) 
None

>  <published_value>  (75) 
551

>  <document_year>  (75) 
2001

>  <target_pref_name>  (75) 
Dopamine D2 receptor

>  <assay_chembl_id>  (75) 
CHEMBL671072

>  <standard_relation>  (75) 
=

>  <assay_description>  (75) 
Inhibition of human dopamine receptor D2

>  <published_relation>  (75) 
=

>  <standard_value>  (75) 
551

>  <qudt_units>  (75) 
http://www.openphacts.org/units/Nanomolar

>  <target_tax_id>  (75) 
9606

>  <bao_label>  (75) 
single protein format

>  <published_units>  (75) 
nM

>  <pchembl_value>  (75) 
6.26

>  <published_type>  (75) 
IC50

>  <activity_comment>  (75) 
None

$$$$

     RDKit          

 37 40  0  0  0  0  0  0  0  0999 V2000
    0.0000    0.0000    0.0000 F   0  0  0  0  0  0  0  0  0  0  0  0
    0.0000    0.0000    0.0000 C   0  0  0  0  0  0  0  0  0  0  0  0
    0.0000    0.0000    0.0000 C   0  0  0  0  0  0  0  0  0  0  0  0
    0.0000    0.0000    0.0000 C   0  0  0  0  0  0  0  0  0  0  0  0
    0.0000    0.0000    0.0000 C   0  0  0  0  0  0  0  0  0  0  0  0
    0.0000    0.0000    0.0000 C   0  0  0  0  0  0  0  0  0  0  0  0
    0.0000    0.0000    0.0000 C   0  0  0  0  0  0  0  0  0  0  0  0
    0.0000    0.0000    0.0000 C   0  0  0  0  0  0  0  0  0  0  0  0
    0.0000    0.0000    0.0000 C   0  0  0  0  0  0  0  0  0  0  0  0
    0.0000    0.0000    0.0000 C   0  0  0  0  0  0  0  0  0  0  0  0
    0.0000    0.0000    0.0000 C   0  0  0  0  0  0  0  0  0  0  0  0
    0.0000    0.0000    0.0000 N   0  0  0  0  0  0  0  0  0  0  0  0
    0.0000    0.0000    0.0000 C   0  0  0  0  0  0  0  0  0  0  0  0
    0.0000    0.0000    0.0000 C   0  0  0  0  0  0  0  0  0  0  0  0
    0.0000    0.0000    0.0000 N   0  0  0  0  0  0  0  0  0  0  0  0
    0.0000    0.0000    0.0000 C   0  0  0  0  0  0  0  0  0  0  0  0
    0.0000    0.0000    0.0000 C   0  0  0  0  0  0  0  0  0  0  0  0
    0.0000    0.0000    0.0000 C   0  0  0  0  0  0  0  0  0  0  0  0
    0.0000    0.0000    0.0000 O   0  0  0  0  0  0  0  0  0  0  0  0
    0.0000    0.0000    0.0000 O   0  0  0  0  0  0  0  0  0  0  0  0
    0.0000    0.0000    0.0000 C   0  0  0  0  0  0  0  0  0  0  0  0
    0.0000    0.0000    0.0000 C   0  0  0  0  0  0  0  0  0  0  0  0
    0.0000    0.0000    0.0000 C   0  0  0  0  0  0  0  0  0  0  0  0
    0.0000    0.0000    0.0000 C   0  0  0  0  0  0  0  0  0  0  0  0
    0.0000    0.0000    0.0000 C   0  0  0  0  0  0  0  0  0  0  0  0
    0.0000    0.0000    0.0000 C   0  0  0  0  0  0  0  0  0  0  0  0
    0.0000    0.0000    0.0000 C   0  0  0  0  0  0  0  0  0  0  0  0
    0.0000    0.0000    0.0000 C   0  0  0  0  0  0  0  0  0  0  0  0
    0.0000    0.0000    0.0000 C   0  0  0  0  0  0  0  0  0  0  0  0
    0.0000    0.0000    0.0000 N   0  0  0  0  0  0  0  0  0  0  0  0
    0.0000    0.0000    0.0000 C   0  0  0  0  0  0  0  0  0  0  0  0
    0.0000    0.0000    0.0000 C   0  0  0  0  0  0  0  0  0  0  0  0
    0.0000    0.0000    0.0000 C   0  0  0  0  0  0  0  0  0  0  0  0
    0.0000    0.0000    0.0000 C   0  0  0  0  0  0  0  0  0  0  0  0
    0.0000    0.0000    0.0000 F   0  0  0  0  0  0  0  0  0  0  0  0
    0.0000    0.0000    0.0000 C   0  0  0  0  0  0  0  0  0  0  0  0
    0.0000    0.0000    0.0000 C   0  0  0  0  0  0  0  0  0  0  0  0
  1  2  1  0
  2  3  2  0
  3  4  1  0
  4  5  2  0
  5  6  1  0
  6  7  2  0
  5  8  1  0
  8  9  1  0
  9 10  1  0
 10 11  1  0
 11 12  1  0
 12 13  1  0
 13 14  1  0
 14 15  1  0
 15 16  1  0
 16 17  1  0
 15 18  1  0
 18 19  2  0
 18 20  1  0
 20 21  1  0
 21 22  1  0
 22 23  1  0
 23 24  2  0
 24 25  1  0
 25 26  2  0
 26 27  1  0
 27 28  2  0
 26 29  1  0
 29 30  3  0
  8 31  1  0
 31 32  2  0
 32 33  1  0
 33 34  2  0
 34 35  1  0
 34 36  1  0
 36 37  2  0
  7  2  1  0
 17 12  1  0
 28 23  1  0
 37 31  1  0
M  END
>  <pIC50>  (76) 
5.65

>  <ChEMBL_ID>  (76) 
CHEMBL326263

>  <document_journal>  (76) 
J. Med. Chem.

>  <bao_endpoint>  (76) 
BAO_0000190

>  <potential_duplicate>  (76) 
False

>  <uo_units>  (76) 
UO_0000065

>  <canonical_smiles>  (76) 
Fc1ccc(cc1)C(CCCN2CCN(CC2)C(=O)OCCc3ccc(cc3)C#N)c4ccc(F)cc4

>  <parent_molecule_chembl_id>  (76) 
CHEMBL326263

>  <assay_type>  (76) 
B

>  <src_id>  (76) 
1

>  <ligand_efficiency>  (76) 
{u'le': u'0.21', u'bei': u'11.22', u'sei': u'9.99', u'lle': u'-0.83'}

>  <standard_flag>  (76) 
True

>  <molecule_chembl_id>  (76) 
CHEMBL326263

>  <target_organism>  (76) 
Homo sapiens

>  <standard_units>  (76) 
nM

>  <record_id>  (76) 
216626

>  <document_chembl_id>  (76) 
CHEMBL1134625

>  <bao_format>  (76) 
BAO_0000357

>  <data_validity_description>  (76) 
None

>  <activity_id>  (76) 
951006

>  <standard_type>  (76) 
IC50

>  <target_chembl_id>  (76) 
CHEMBL217

>  <data_validity_comment>  (76) 
None

>  <published_value>  (76) 
2240

>  <document_year>  (76) 
2001

>  <target_pref_name>  (76) 
Dopamine D2 receptor

>  <assay_chembl_id>  (76) 
CHEMBL671072

>  <standard_relation>  (76) 
=

>  <assay_description>  (76) 
Inhibition of human dopamine receptor D2

>  <published_relation>  (76) 
=

>  <standard_value>  (76) 
2240

>  <qudt_units>  (76) 
http://www.openphacts.org/units/Nanomolar

>  <target_tax_id>  (76) 
9606

>  <bao_label>  (76) 
single protein format

>  <published_units>  (76) 
nM

>  <pchembl_value>  (76) 
5.65

>  <published_type>  (76) 
IC50

>  <activity_comment>  (76) 
None

$$$$

     RDKit          

 38 41  0  0  0  0  0  0  0  0999 V2000
    0.0000    0.0000    0.0000 C   0  0  0  0  0  0  0  0  0  0  0  0
    0.0000    0.0000    0.0000 C   0  0  0  0  0  0  0  0  0  0  0  0
    0.0000    0.0000    0.0000 O   0  0  0  0  0  0  0  0  0  0  0  0
    0.0000    0.0000    0.0000 C   0  0  0  0  0  0  0  0  0  0  0  0
    0.0000    0.0000    0.0000 C   0  0  0  0  0  0  0  0  0  0  0  0
    0.0000    0.0000    0.0000 C   0  0  0  0  0  0  0  0  0  0  0  0
    0.0000    0.0000    0.0000 C   0  0  0  0  0  0  0  0  0  0  0  0
    0.0000    0.0000    0.0000 C   0  0  0  0  0  0  0  0  0  0  0  0
    0.0000    0.0000    0.0000 C   0  0  0  0  0  0  0  0  0  0  0  0
    0.0000    0.0000    0.0000 N   0  0  0  0  0  0  0  0  0  0  0  0
    0.0000    0.0000    0.0000 C   0  0  0  0  0  0  0  0  0  0  0  0
    0.0000    0.0000    0.0000 O   0  0  0  0  0  0  0  0  0  0  0  0
    0.0000    0.0000    0.0000 N   0  0  0  0  0  0  0  0  0  0  0  0
    0.0000    0.0000    0.0000 C   0  0  0  0  0  0  0  0  0  0  0  0
    0.0000    0.0000    0.0000 C   0  0  0  0  0  0  0  0  0  0  0  0
    0.0000    0.0000    0.0000 N   0  0  0  0  0  0  0  0  0  0  0  0
    0.0000    0.0000    0.0000 C   0  0  0  0  0  0  0  0  0  0  0  0
    0.0000    0.0000    0.0000 C   0  0  0  0  0  0  0  0  0  0  0  0
    0.0000    0.0000    0.0000 C   0  0  0  0  0  0  0  0  0  0  0  0
    0.0000    0.0000    0.0000 C   0  0  0  0  0  0  0  0  0  0  0  0
    0.0000    0.0000    0.0000 C   0  0  0  0  0  0  0  0  0  0  0  0
    0.0000    0.0000    0.0000 C   0  0  0  0  0  0  0  0  0  0  0  0
    0.0000    0.0000    0.0000 C   0  0  0  0  0  0  0  0  0  0  0  0
    0.0000    0.0000    0.0000 C   0  0  0  0  0  0  0  0  0  0  0  0
    0.0000    0.0000    0.0000 F   0  0  0  0  0  0  0  0  0  0  0  0
    0.0000    0.0000    0.0000 C   0  0  0  0  0  0  0  0  0  0  0  0
    0.0000    0.0000    0.0000 C   0  0  0  0  0  0  0  0  0  0  0  0
    0.0000    0.0000    0.0000 C   0  0  0  0  0  0  0  0  0  0  0  0
    0.0000    0.0000    0.0000 C   0  0  0  0  0  0  0  0  0  0  0  0
    0.0000    0.0000    0.0000 C   0  0  0  0  0  0  0  0  0  0  0  0
    0.0000    0.0000    0.0000 C   0  0  0  0  0  0  0  0  0  0  0  0
    0.0000    0.0000    0.0000 F   0  0  0  0  0  0  0  0  0  0  0  0
    0.0000    0.0000    0.0000 C   0  0  0  0  0  0  0  0  0  0  0  0
    0.0000    0.0000    0.0000 C   0  0  0  0  0  0  0  0  0  0  0  0
    0.0000    0.0000    0.0000 C   0  0  0  0  0  0  0  0  0  0  0  0
    0.0000    0.0000    0.0000 C   0  0  0  0  0  0  0  0  0  0  0  0
    0.0000    0.0000    0.0000 C   0  0  0  0  0  0  0  0  0  0  0  0
    0.0000    0.0000    0.0000 C   0  0  0  0  0  0  0  0  0  0  0  0
  1  2  1  0
  2  3  1  0
  3  4  1  0
  4  5  2  0
  5  6  1  0
  6  7  2  0
  7  8  1  0
  8  9  1  0
  9 10  1  0
 10 11  1  0
 11 12  2  0
 11 13  1  0
 13 14  1  0
 14 15  1  0
 15 16  1  0
 16 17  1  0
 17 18  1  0
 18 19  1  0
 19 20  1  0
 20 21  1  0
 21 22  2  0
 22 23  1  0
 23 24  2  0
 24 25  1  0
 24 26  1  0
 26 27  2  0
 20 28  1  0
 28 29  2  0
 29 30  1  0
 30 31  2  0
 31 32  1  0
 31 33  1  0
 33 34  2  0
 16 35  1  0
 35 36  1  0
  7 37  1  0
 37 38  2  0
 38  4  1  0
 36 13  1  0
 27 21  1  0
 34 28  1  0
M  END
>  <pIC50>  (77) 
5.54

>  <ChEMBL_ID>  (77) 
CHEMBL113956

>  <document_journal>  (77) 
J. Med. Chem.

>  <bao_endpoint>  (77) 
BAO_0000190

>  <potential_duplicate>  (77) 
False

>  <uo_units>  (77) 
UO_0000065

>  <canonical_smiles>  (77) 
CCOc1ccc(CCNC(=O)N2CCN(CCCC(c3ccc(F)cc3)c4ccc(F)cc4)CC2)cc1

>  <parent_molecule_chembl_id>  (77) 
CHEMBL113956

>  <assay_type>  (77) 
B

>  <src_id>  (77) 
1

>  <ligand_efficiency>  (77) 
{u'le': u'0.2', u'bei': u'10.62', u'sei': u'12.36', u'lle': u'-0.74'}

>  <standard_flag>  (77) 
True

>  <molecule_chembl_id>  (77) 
CHEMBL113956

>  <target_organism>  (77) 
Homo sapiens

>  <standard_units>  (77) 
nM

>  <record_id>  (77) 
216612

>  <document_chembl_id>  (77) 
CHEMBL1134625

>  <bao_format>  (77) 
BAO_0000357

>  <data_validity_description>  (77) 
None

>  <activity_id>  (77) 
960153

>  <standard_type>  (77) 
IC50

>  <target_chembl_id>  (77) 
CHEMBL217

>  <data_validity_comment>  (77) 
None

>  <published_value>  (77) 
2890

>  <document_year>  (77) 
2001

>  <target_pref_name>  (77) 
Dopamine D2 receptor

>  <assay_chembl_id>  (77) 
CHEMBL671072

>  <standard_relation>  (77) 
=

>  <assay_description>  (77) 
Inhibition of human dopamine receptor D2

>  <published_relation>  (77) 
=

>  <standard_value>  (77) 
2890

>  <qudt_units>  (77) 
http://www.openphacts.org/units/Nanomolar

>  <target_tax_id>  (77) 
9606

>  <bao_label>  (77) 
single protein format

>  <published_units>  (77) 
nM

>  <pchembl_value>  (77) 
5.54

>  <published_type>  (77) 
IC50

>  <activity_comment>  (77) 
None

$$$$

     RDKit          

 31 35  0  0  0  0  0  0  0  0999 V2000
    0.0000    0.0000    0.0000 O   0  0  0  0  0  0  0  0  0  0  0  0
    0.0000    0.0000    0.0000 C   0  0  0  0  0  0  0  0  0  0  0  0
    0.0000    0.0000    0.0000 N   0  0  0  0  0  0  0  0  0  0  0  0
    0.0000    0.0000    0.0000 C   0  0  0  0  0  0  0  0  0  0  0  0
    0.0000    0.0000    0.0000 N   0  0  0  0  0  0  0  0  0  0  0  0
    0.0000    0.0000    0.0000 C   0  0  0  0  0  0  0  0  0  0  0  0
    0.0000    0.0000    0.0000 C   0  0  0  0  0  0  0  0  0  0  0  0
    0.0000    0.0000    0.0000 C   0  0  0  0  0  0  0  0  0  0  0  0
    0.0000    0.0000    0.0000 C   0  0  0  0  0  0  0  0  0  0  0  0
    0.0000    0.0000    0.0000 C   0  0  0  0  0  0  0  0  0  0  0  0
    0.0000    0.0000    0.0000 C   0  0  0  0  0  0  0  0  0  0  0  0
    0.0000    0.0000    0.0000 C   0  0  0  0  0  0  0  0  0  0  0  0
    0.0000    0.0000    0.0000 C   0  0  0  0  0  0  0  0  0  0  0  0
    0.0000    0.0000    0.0000 C   0  0  0  0  0  0  0  0  0  0  0  0
    0.0000    0.0000    0.0000 N   0  0  0  0  0  0  0  0  0  0  0  0
    0.0000    0.0000    0.0000 C   0  0  0  0  0  0  0  0  0  0  0  0
    0.0000    0.0000    0.0000 C   0  0  0  0  0  0  0  0  0  0  0  0
    0.0000    0.0000    0.0000 C   0  0  0  0  0  0  0  0  0  0  0  0
    0.0000    0.0000    0.0000 C   0  0  0  0  0  0  0  0  0  0  0  0
    0.0000    0.0000    0.0000 C   0  0  0  0  0  0  0  0  0  0  0  0
    0.0000    0.0000    0.0000 C   0  0  0  0  0  0  0  0  0  0  0  0
    0.0000    0.0000    0.0000 O   0  0  0  0  0  0  0  0  0  0  0  0
    0.0000    0.0000    0.0000 C   0  0  0  0  0  0  0  0  0  0  0  0
    0.0000    0.0000    0.0000 C   0  0  0  0  0  0  0  0  0  0  0  0
    0.0000    0.0000    0.0000 C   0  0  0  0  0  0  0  0  0  0  0  0
    0.0000    0.0000    0.0000 C   0  0  0  0  0  0  0  0  0  0  0  0
    0.0000    0.0000    0.0000 C   0  0  0  0  0  0  0  0  0  0  0  0
    0.0000    0.0000    0.0000 C   0  0  0  0  0  0  0  0  0  0  0  0
    0.0000    0.0000    0.0000 C   0  0  0  0  0  0  0  0  0  0  0  0
    0.0000    0.0000    0.0000 C   0  0  0  0  0  0  0  0  0  0  0  0
    0.0000    0.0000    0.0000 C   0  0  0  0  0  0  0  0  0  0  0  0
  1  2  2  0
  2  3  1  0
  3  4  1  0
  4  5  1  0
  5  6  1  0
  6  7  2  0
  7  8  1  0
  8  9  2  0
  9 10  1  0
 10 11  2  0
  5 12  1  0
 12 13  1  0
 13 14  1  0
 14 15  1  0
 15 16  1  0
 16 17  1  0
 17 18  2  0
 18 19  1  0
 19 20  2  0
 20 21  1  0
 21 22  1  0
 22 23  1  0
 23 24  2  0
 24 25  1  0
 25 26  2  0
 26 27  1  0
 27 28  2  0
 21 29  2  0
 15 30  1  0
 30 31  1  0
 12  2  1  0
 11  6  1  0
 31 12  1  0
 29 17  1  0
 28 23  1  0
M  END
>  <pIC50>  (78) 
6.27

>  <ChEMBL_ID>  (78) 
CHEMBL115280

>  <document_journal>  (78) 
J. Med. Chem.

>  <bao_endpoint>  (78) 
BAO_0000190

>  <potential_duplicate>  (78) 
False

>  <uo_units>  (78) 
UO_0000065

>  <canonical_smiles>  (78) 
O=C1NCN(c2ccccc2)C13CCN(Cc4cccc(Oc5ccccc5)c4)CC3

>  <parent_molecule_chembl_id>  (78) 
CHEMBL115280

>  <assay_type>  (78) 
B

>  <src_id>  (78) 
1

>  <ligand_efficiency>  (78) 
{u'le': u'0.28', u'bei': u'15.16', u'sei': u'13.99', u'lle': u'2.09'}

>  <standard_flag>  (78) 
True

>  <molecule_chembl_id>  (78) 
CHEMBL115280

>  <target_organism>  (78) 
Homo sapiens

>  <standard_units>  (78) 
nM

>  <record_id>  (78) 
216628

>  <document_chembl_id>  (78) 
CHEMBL1134625

>  <bao_format>  (78) 
BAO_0000357

>  <data_validity_description>  (78) 
None

>  <activity_id>  (78) 
962620

>  <standard_type>  (78) 
IC50

>  <target_chembl_id>  (78) 
CHEMBL217

>  <data_validity_comment>  (78) 
None

>  <published_value>  (78) 
538

>  <document_year>  (78) 
2001

>  <target_pref_name>  (78) 
Dopamine D2 receptor

>  <assay_chembl_id>  (78) 
CHEMBL671072

>  <standard_relation>  (78) 
=

>  <assay_description>  (78) 
Inhibition of human dopamine receptor D2

>  <published_relation>  (78) 
=

>  <standard_value>  (78) 
538

>  <qudt_units>  (78) 
http://www.openphacts.org/units/Nanomolar

>  <target_tax_id>  (78) 
9606

>  <bao_label>  (78) 
single protein format

>  <published_units>  (78) 
nM

>  <pchembl_value>  (78) 
6.27

>  <published_type>  (78) 
IC50

>  <activity_comment>  (78) 
None

$$$$

     RDKit          

 27 31  0  0  0  0  0  0  0  0999 V2000
    0.0000    0.0000    0.0000 O   0  0  0  0  0  0  0  0  0  0  0  0
    0.0000    0.0000    0.0000 C   0  0  0  0  0  0  0  0  0  0  0  0
    0.0000    0.0000    0.0000 N   0  0  0  0  0  0  0  0  0  0  0  0
    0.0000    0.0000    0.0000 C   0  0  0  0  0  0  0  0  0  0  0  0
    0.0000    0.0000    0.0000 N   0  0  0  0  0  0  0  0  0  0  0  0
    0.0000    0.0000    0.0000 C   0  0  0  0  0  0  0  0  0  0  0  0
    0.0000    0.0000    0.0000 C   0  0  0  0  0  0  0  0  0  0  0  0
    0.0000    0.0000    0.0000 C   0  0  0  0  0  0  0  0  0  0  0  0
    0.0000    0.0000    0.0000 C   0  0  0  0  0  0  0  0  0  0  0  0
    0.0000    0.0000    0.0000 C   0  0  0  0  0  0  0  0  0  0  0  0
    0.0000    0.0000    0.0000 C   0  0  0  0  0  0  0  0  0  0  0  0
    0.0000    0.0000    0.0000 C   0  0  0  0  0  0  0  0  0  0  0  0
    0.0000    0.0000    0.0000 C   0  0  0  0  0  0  0  0  0  0  0  0
    0.0000    0.0000    0.0000 C   0  0  0  0  0  0  0  0  0  0  0  0
    0.0000    0.0000    0.0000 N   0  0  0  0  0  0  0  0  0  0  0  0
    0.0000    0.0000    0.0000 C   0  0  0  0  0  0  0  0  0  0  0  0
    0.0000    0.0000    0.0000 C   0  0  0  0  0  0  0  0  0  0  0  0
    0.0000    0.0000    0.0000 C   0  0  0  0  0  0  0  0  0  0  0  0
    0.0000    0.0000    0.0000 C   0  0  0  0  0  0  0  0  0  0  0  0
    0.0000    0.0000    0.0000 C   0  0  0  0  0  0  0  0  0  0  0  0
    0.0000    0.0000    0.0000 N   0  0  0  0  0  0  0  0  0  0  0  0
    0.0000    0.0000    0.0000 S   0  0  0  0  0  0  0  0  0  0  0  0
    0.0000    0.0000    0.0000 N   0  0  0  0  0  0  0  0  0  0  0  0
    0.0000    0.0000    0.0000 C   0  0  0  0  0  0  0  0  0  0  0  0
    0.0000    0.0000    0.0000 C   0  0  0  0  0  0  0  0  0  0  0  0
    0.0000    0.0000    0.0000 C   0  0  0  0  0  0  0  0  0  0  0  0
    0.0000    0.0000    0.0000 C   0  0  0  0  0  0  0  0  0  0  0  0
  1  2  2  0
  2  3  1  0
  3  4  1  0
  4  5  1  0
  5  6  1  0
  6  7  2  0
  7  8  1  0
  8  9  2  0
  9 10  1  0
 10 11  2  0
  5 12  1  0
 12 13  1  0
 13 14  1  0
 14 15  1  0
 15 16  1  0
 16 17  1  0
 17 18  1  0
 18 19  2  0
 19 20  1  0
 20 21  2  0
 21 22  1  0
 22 23  1  0
 23 24  2  0
 24 25  1  0
 15 26  1  0
 26 27  1  0
 12  2  1  0
 11  6  1  0
 27 12  1  0
 25 17  2  0
 24 20  1  0
M  END
>  <pIC50>  (79) 
6.91

>  <ChEMBL_ID>  (79) 
CHEMBL325750

>  <document_journal>  (79) 
J. Med. Chem.

>  <bao_endpoint>  (79) 
BAO_0000190

>  <potential_duplicate>  (79) 
False

>  <uo_units>  (79) 
UO_0000065

>  <canonical_smiles>  (79) 
O=C1NCN(c2ccccc2)C13CCN(Cc4ccc5nsnc5c4)CC3

>  <parent_molecule_chembl_id>  (79) 
CHEMBL325750

>  <assay_type>  (79) 
B

>  <src_id>  (79) 
1

>  <ligand_efficiency>  (79) 
{u'le': u'0.35', u'bei': u'18.21', u'sei': u'7.71', u'lle': u'4.17'}

>  <standard_flag>  (79) 
True

>  <molecule_chembl_id>  (79) 
CHEMBL325750

>  <target_organism>  (79) 
Homo sapiens

>  <standard_units>  (79) 
nM

>  <record_id>  (79) 
216629

>  <document_chembl_id>  (79) 
CHEMBL1134625

>  <bao_format>  (79) 
BAO_0000357

>  <data_validity_description>  (79) 
None

>  <activity_id>  (79) 
969067

>  <standard_type>  (79) 
IC50

>  <target_chembl_id>  (79) 
CHEMBL217

>  <data_validity_comment>  (79) 
None

>  <published_value>  (79) 
123

>  <document_year>  (79) 
2001

>  <target_pref_name>  (79) 
Dopamine D2 receptor

>  <assay_chembl_id>  (79) 
CHEMBL671072

>  <standard_relation>  (79) 
=

>  <assay_description>  (79) 
Inhibition of human dopamine receptor D2

>  <published_relation>  (79) 
=

>  <standard_value>  (79) 
123

>  <qudt_units>  (79) 
http://www.openphacts.org/units/Nanomolar

>  <target_tax_id>  (79) 
9606

>  <bao_label>  (79) 
single protein format

>  <published_units>  (79) 
nM

>  <pchembl_value>  (79) 
6.91

>  <published_type>  (79) 
IC50

>  <activity_comment>  (79) 
None

$$$$

     RDKit          

 33 37  0  0  0  0  0  0  0  0999 V2000
    0.0000    0.0000    0.0000 C   0  0  0  0  0  0  0  0  0  0  0  0
    0.0000    0.0000    0.0000 N   0  0  0  0  0  0  0  0  0  0  0  0
    0.0000    0.0000    0.0000 C   0  0  0  0  0  0  0  0  0  0  0  0
    0.0000    0.0000    0.0000 O   0  0  0  0  0  0  0  0  0  0  0  0
    0.0000    0.0000    0.0000 C   0  0  0  0  0  0  0  0  0  0  0  0
    0.0000    0.0000    0.0000 N   0  0  0  0  0  0  0  0  0  0  0  0
    0.0000    0.0000    0.0000 C   0  0  0  0  0  0  0  0  0  0  0  0
    0.0000    0.0000    0.0000 N   0  0  0  0  0  0  0  0  0  0  0  0
    0.0000    0.0000    0.0000 C   0  0  0  0  0  0  0  0  0  0  0  0
    0.0000    0.0000    0.0000 C   0  0  0  0  0  0  0  0  0  0  0  0
    0.0000    0.0000    0.0000 C   0  0  0  0  0  0  0  0  0  0  0  0
    0.0000    0.0000    0.0000 C   0  0  0  0  0  0  0  0  0  0  0  0
    0.0000    0.0000    0.0000 C   0  0  0  0  0  0  0  0  0  0  0  0
    0.0000    0.0000    0.0000 C   0  0  0  0  0  0  0  0  0  0  0  0
    0.0000    0.0000    0.0000 C   0  0  0  0  0  0  0  0  0  0  0  0
    0.0000    0.0000    0.0000 C   0  0  0  0  0  0  0  0  0  0  0  0
    0.0000    0.0000    0.0000 C   0  0  0  0  0  0  0  0  0  0  0  0
    0.0000    0.0000    0.0000 N   0  0  0  0  0  0  0  0  0  0  0  0
    0.0000    0.0000    0.0000 C   0  0  0  0  0  0  0  0  0  0  0  0
    0.0000    0.0000    0.0000 C   0  0  0  0  0  0  0  0  0  0  0  0
    0.0000    0.0000    0.0000 C   0  0  0  0  0  0  0  0  0  0  0  0
    0.0000    0.0000    0.0000 C   0  0  0  0  0  0  0  0  0  0  0  0
    0.0000    0.0000    0.0000 O   0  0  0  0  0  0  0  0  0  0  0  0
    0.0000    0.0000    0.0000 C   0  0  0  0  0  0  0  0  0  0  0  0
    0.0000    0.0000    0.0000 O   0  0  0  0  0  0  0  0  0  0  0  0
    0.0000    0.0000    0.0000 C   0  0  0  0  0  0  0  0  0  0  0  0
    0.0000    0.0000    0.0000 C   0  0  0  0  0  0  0  0  0  0  0  0
    0.0000    0.0000    0.0000 C   0  0  0  0  0  0  0  0  0  0  0  0
    0.0000    0.0000    0.0000 Cl  0  0  0  0  0  0  0  0  0  0  0  0
    0.0000    0.0000    0.0000 C   0  0  0  0  0  0  0  0  0  0  0  0
    0.0000    0.0000    0.0000 C   0  0  0  0  0  0  0  0  0  0  0  0
    0.0000    0.0000    0.0000 C   0  0  0  0  0  0  0  0  0  0  0  0
    0.0000    0.0000    0.0000 O   0  0  0  0  0  0  0  0  0  0  0  0
  1  2  1  0
  2  3  1  0
  3  4  2  0
  3  5  1  0
  5  6  1  0
  6  7  1  0
  7  8  1  0
  8  9  1  0
  9 10  2  0
 10 11  1  0
 11 12  2  0
 12 13  1  0
 13 14  2  0
  8 15  1  0
 15 16  1  0
 16 17  1  0
 17 18  1  0
 18 19  1  0
 19 20  1  0
 20 21  2  0
 21 22  1  0
 22 23  1  0
 23 24  1  0
 24 25  1  0
 25 26  1  0
 26 27  1  0
 27 28  2  0
 28 29  1  0
 18 30  1  0
 30 31  1  0
 15 32  1  0
 32 33  2  0
 32  6  1  0
 14  9  1  0
 31 15  1  0
 28 20  1  0
 26 22  2  0
M  END
>  <pIC50>  (80) 
5.67

>  <ChEMBL_ID>  (80) 
CHEMBL115222

>  <document_journal>  (80) 
J. Med. Chem.

>  <bao_endpoint>  (80) 
BAO_0000190

>  <potential_duplicate>  (80) 
False

>  <uo_units>  (80) 
UO_0000065

>  <canonical_smiles>  (80) 
CNC(=O)CN1CN(c2ccccc2)C3(CCN(Cc4cc5OCOc5cc4Cl)CC3)C1=O

>  <parent_molecule_chembl_id>  (80) 
CHEMBL115222

>  <assay_type>  (80) 
B

>  <src_id>  (80) 
1

>  <ligand_efficiency>  (80) 
{u'le': u'0.23', u'bei': u'12.05', u'sei': u'7.63', u'lle': u'3.36'}

>  <standard_flag>  (80) 
True

>  <molecule_chembl_id>  (80) 
CHEMBL115222

>  <target_organism>  (80) 
Homo sapiens

>  <standard_units>  (80) 
nM

>  <record_id>  (80) 
216631

>  <document_chembl_id>  (80) 
CHEMBL1134625

>  <bao_format>  (80) 
BAO_0000357

>  <data_validity_description>  (80) 
None

>  <activity_id>  (80) 
970267

>  <standard_type>  (80) 
IC50

>  <target_chembl_id>  (80) 
CHEMBL217

>  <data_validity_comment>  (80) 
None

>  <published_value>  (80) 
2120

>  <document_year>  (80) 
2001

>  <target_pref_name>  (80) 
Dopamine D2 receptor

>  <assay_chembl_id>  (80) 
CHEMBL671072

>  <standard_relation>  (80) 
=

>  <assay_description>  (80) 
Inhibition of human dopamine receptor D2

>  <published_relation>  (80) 
=

>  <standard_value>  (80) 
2120

>  <qudt_units>  (80) 
http://www.openphacts.org/units/Nanomolar

>  <target_tax_id>  (80) 
9606

>  <bao_label>  (80) 
single protein format

>  <published_units>  (80) 
nM

>  <pchembl_value>  (80) 
5.67

>  <published_type>  (80) 
IC50

>  <activity_comment>  (80) 
None

$$$$

     RDKit          

 36 39  0  0  0  0  0  0  0  0999 V2000
    0.0000    0.0000    0.0000 F   0  0  0  0  0  0  0  0  0  0  0  0
    0.0000    0.0000    0.0000 C   0  0  0  0  0  0  0  0  0  0  0  0
    0.0000    0.0000    0.0000 C   0  0  0  0  0  0  0  0  0  0  0  0
    0.0000    0.0000    0.0000 C   0  0  0  0  0  0  0  0  0  0  0  0
    0.0000    0.0000    0.0000 C   0  0  0  0  0  0  0  0  0  0  0  0
    0.0000    0.0000    0.0000 C   0  0  0  0  0  0  0  0  0  0  0  0
    0.0000    0.0000    0.0000 C   0  0  0  0  0  0  0  0  0  0  0  0
    0.0000    0.0000    0.0000 O   0  0  0  0  0  0  0  0  0  0  0  0
    0.0000    0.0000    0.0000 C   0  0  0  0  0  0  0  0  0  0  0  0
    0.0000    0.0000    0.0000 O   0  0  0  0  0  0  0  0  0  0  0  0
    0.0000    0.0000    0.0000 N   0  0  0  0  0  0  0  0  0  0  0  0
    0.0000    0.0000    0.0000 C   0  0  0  0  0  0  0  0  0  0  0  0
    0.0000    0.0000    0.0000 C   0  0  0  0  0  0  0  0  0  0  0  0
    0.0000    0.0000    0.0000 N   0  0  0  0  0  0  0  0  0  0  0  0
    0.0000    0.0000    0.0000 C   0  0  0  0  0  0  0  0  0  0  0  0
    0.0000    0.0000    0.0000 C   0  0  0  0  0  0  0  0  0  0  0  0
    0.0000    0.0000    0.0000 C   0  0  0  0  0  0  0  0  0  0  0  0
    0.0000    0.0000    0.0000 C   0  0  0  0  0  0  0  0  0  0  0  0
    0.0000    0.0000    0.0000 C   0  0  0  0  0  0  0  0  0  0  0  0
    0.0000    0.0000    0.0000 C   0  0  0  0  0  0  0  0  0  0  0  0
    0.0000    0.0000    0.0000 C   0  0  0  0  0  0  0  0  0  0  0  0
    0.0000    0.0000    0.0000 C   0  0  0  0  0  0  0  0  0  0  0  0
    0.0000    0.0000    0.0000 F   0  0  0  0  0  0  0  0  0  0  0  0
    0.0000    0.0000    0.0000 C   0  0  0  0  0  0  0  0  0  0  0  0
    0.0000    0.0000    0.0000 C   0  0  0  0  0  0  0  0  0  0  0  0
    0.0000    0.0000    0.0000 C   0  0  0  0  0  0  0  0  0  0  0  0
    0.0000    0.0000    0.0000 C   0  0  0  0  0  0  0  0  0  0  0  0
    0.0000    0.0000    0.0000 C   0  0  0  0  0  0  0  0  0  0  0  0
    0.0000    0.0000    0.0000 C   0  0  0  0  0  0  0  0  0  0  0  0
    0.0000    0.0000    0.0000 F   0  0  0  0  0  0  0  0  0  0  0  0
    0.0000    0.0000    0.0000 C   0  0  0  0  0  0  0  0  0  0  0  0
    0.0000    0.0000    0.0000 C   0  0  0  0  0  0  0  0  0  0  0  0
    0.0000    0.0000    0.0000 C   0  0  0  0  0  0  0  0  0  0  0  0
    0.0000    0.0000    0.0000 C   0  0  0  0  0  0  0  0  0  0  0  0
    0.0000    0.0000    0.0000 C   0  0  0  0  0  0  0  0  0  0  0  0
    0.0000    0.0000    0.0000 C   0  0  0  0  0  0  0  0  0  0  0  0
  1  2  1  0
  2  3  2  0
  3  4  1  0
  4  5  2  0
  5  6  1  0
  6  7  1  0
  7  8  1  0
  8  9  1  0
  9 10  2  0
  9 11  1  0
 11 12  1  0
 12 13  1  0
 13 14  1  0
 14 15  1  0
 15 16  1  0
 16 17  1  0
 17 18  1  0
 18 19  1  0
 19 20  2  0
 20 21  1  0
 21 22  2  0
 22 23  1  0
 22 24  1  0
 24 25  2  0
 18 26  1  0
 26 27  2  0
 27 28  1  0
 28 29  2  0
 29 30  1  0
 29 31  1  0
 31 32  2  0
 14 33  1  0
 33 34  1  0
  5 35  1  0
 35 36  2  0
 36  2  1  0
 34 11  1  0
 25 19  1  0
 32 26  1  0
M  END
>  <pIC50>  (81) 
5.58

>  <ChEMBL_ID>  (81) 
CHEMBL325516

>  <document_journal>  (81) 
J. Med. Chem.

>  <bao_endpoint>  (81) 
BAO_0000190

>  <potential_duplicate>  (81) 
False

>  <uo_units>  (81) 
UO_0000065

>  <canonical_smiles>  (81) 
Fc1ccc(CCOC(=O)N2CCN(CCCC(c3ccc(F)cc3)c4ccc(F)cc4)CC2)cc1

>  <parent_molecule_chembl_id>  (81) 
CHEMBL325516

>  <assay_type>  (81) 
B

>  <src_id>  (81) 
1

>  <ligand_efficiency>  (81) 
{u'le': u'0.21', u'bei': u'11.24', u'sei': u'17.03', u'lle': u'-1.22'}

>  <standard_flag>  (81) 
True

>  <molecule_chembl_id>  (81) 
CHEMBL325516

>  <target_organism>  (81) 
Homo sapiens

>  <standard_units>  (81) 
nM

>  <record_id>  (81) 
216625

>  <document_chembl_id>  (81) 
CHEMBL1134625

>  <bao_format>  (81) 
BAO_0000357

>  <data_validity_description>  (81) 
None

>  <activity_id>  (81) 
975320

>  <standard_type>  (81) 
IC50

>  <target_chembl_id>  (81) 
CHEMBL217

>  <data_validity_comment>  (81) 
None

>  <published_value>  (81) 
2620

>  <document_year>  (81) 
2001

>  <target_pref_name>  (81) 
Dopamine D2 receptor

>  <assay_chembl_id>  (81) 
CHEMBL671072

>  <standard_relation>  (81) 
=

>  <assay_description>  (81) 
Inhibition of human dopamine receptor D2

>  <published_relation>  (81) 
=

>  <standard_value>  (81) 
2620

>  <qudt_units>  (81) 
http://www.openphacts.org/units/Nanomolar

>  <target_tax_id>  (81) 
9606

>  <bao_label>  (81) 
single protein format

>  <published_units>  (81) 
nM

>  <pchembl_value>  (81) 
5.58

>  <published_type>  (81) 
IC50

>  <activity_comment>  (81) 
None

$$$$

     RDKit          

 25 28  0  0  0  0  0  0  0  0999 V2000
    0.0000    0.0000    0.0000 O   0  0  0  0  0  0  0  0  0  0  0  0
    0.0000    0.0000    0.0000 C   0  0  0  0  0  0  0  0  0  0  0  0
    0.0000    0.0000    0.0000 N   0  0  0  0  0  0  0  0  0  0  0  0
    0.0000    0.0000    0.0000 N   0  0  0  0  0  0  0  0  0  0  0  0
    0.0000    0.0000    0.0000 C   0  0  0  0  0  0  0  0  0  0  0  0
    0.0000    0.0000    0.0000 C   0  0  0  0  0  0  0  0  0  0  0  0
    0.0000    0.0000    0.0000 C   0  0  0  0  0  0  0  0  0  0  0  0
    0.0000    0.0000    0.0000 C   0  0  0  0  0  0  0  0  0  0  0  0
    0.0000    0.0000    0.0000 C   0  0  0  0  0  0  0  0  0  0  0  0
    0.0000    0.0000    0.0000 C   0  0  0  0  0  0  0  0  0  0  0  0
    0.0000    0.0000    0.0000 C   0  0  0  0  0  0  0  0  0  0  0  0
    0.0000    0.0000    0.0000 C   0  0  0  0  0  0  0  0  0  0  0  0
    0.0000    0.0000    0.0000 C   0  0  0  0  0  0  0  0  0  0  0  0
    0.0000    0.0000    0.0000 C   0  0  0  0  0  0  0  0  0  0  0  0
    0.0000    0.0000    0.0000 N   0  0  0  0  0  0  0  0  0  0  0  0
    0.0000    0.0000    0.0000 C   0  0  0  0  0  0  0  0  0  0  0  0
    0.0000    0.0000    0.0000 C   0  0  0  0  0  0  0  0  0  0  0  0
    0.0000    0.0000    0.0000 C   0  0  0  0  0  0  0  0  0  0  0  0
    0.0000    0.0000    0.0000 C   0  0  0  0  0  0  0  0  0  0  0  0
    0.0000    0.0000    0.0000 C   0  0  0  0  0  0  0  0  0  0  0  0
    0.0000    0.0000    0.0000 C   0  0  0  0  0  0  0  0  0  0  0  0
    0.0000    0.0000    0.0000 Cl  0  0  0  0  0  0  0  0  0  0  0  0
    0.0000    0.0000    0.0000 C   0  0  0  0  0  0  0  0  0  0  0  0
    0.0000    0.0000    0.0000 C   0  0  0  0  0  0  0  0  0  0  0  0
    0.0000    0.0000    0.0000 C   0  0  0  0  0  0  0  0  0  0  0  0
  1  2  2  0
  2  3  1  0
  4  2  1  0
  5  4  1  0
  6  4  1  0
  7  5  1  0
  5  8  1  0
  9  6  1  0
  6 10  2  0
 11  7  1  0
  8 12  1  0
 13  9  2  0
  3 10  1  0
 10 14  1  0
 15 11  1  0
 12 15  1  0
 16 13  1  0
 14 16  2  0
 17 15  1  0
 18 17  1  0
 19 18  2  0
 18 20  1  0
 21 19  1  0
 20 22  1  0
 20 23  2  0
 24 21  2  0
 23 24  1  0
 25 24  1  0
M  END
>  <pIC50>  (82) 
6.32

>  <ChEMBL_ID>  (82) 
CHEMBL114484

>  <document_journal>  (82) 
J. Med. Chem.

>  <bao_endpoint>  (82) 
BAO_0000190

>  <potential_duplicate>  (82) 
False

>  <uo_units>  (82) 
UO_0000065

>  <canonical_smiles>  (82) 
Cc1ccc(CN2CCC(CC2)n3c(O)nc4ccccc34)c(Cl)c1

>  <parent_molecule_chembl_id>  (82) 
CHEMBL114484

>  <assay_type>  (82) 
B

>  <src_id>  (82) 
1

>  <ligand_efficiency>  (82) 
{u'le': u'0.35', u'bei': u'17.76', u'sei': u'15.3', u'lle': u'1.62'}

>  <standard_flag>  (82) 
True

>  <molecule_chembl_id>  (82) 
CHEMBL114484

>  <target_organism>  (82) 
Homo sapiens

>  <standard_units>  (82) 
nM

>  <record_id>  (82) 
216594

>  <document_chembl_id>  (82) 
CHEMBL1134625

>  <bao_format>  (82) 
BAO_0000357

>  <data_validity_description>  (82) 
None

>  <activity_id>  (82) 
978919

>  <standard_type>  (82) 
IC50

>  <target_chembl_id>  (82) 
CHEMBL217

>  <data_validity_comment>  (82) 
None

>  <published_value>  (82) 
480

>  <document_year>  (82) 
2001

>  <target_pref_name>  (82) 
Dopamine D2 receptor

>  <assay_chembl_id>  (82) 
CHEMBL671072

>  <standard_relation>  (82) 
=

>  <assay_description>  (82) 
Inhibition of human dopamine receptor D2

>  <published_relation>  (82) 
=

>  <standard_value>  (82) 
480

>  <qudt_units>  (82) 
http://www.openphacts.org/units/Nanomolar

>  <target_tax_id>  (82) 
9606

>  <bao_label>  (82) 
single protein format

>  <published_units>  (82) 
nM

>  <pchembl_value>  (82) 
6.32

>  <published_type>  (82) 
IC50

>  <activity_comment>  (82) 
None

$$$$

     RDKit          

 27 31  0  0  0  0  0  0  0  0999 V2000
    0.0000    0.0000    0.0000 O   0  0  0  0  0  0  0  0  0  0  0  0
    0.0000    0.0000    0.0000 C   0  0  0  0  0  0  0  0  0  0  0  0
    0.0000    0.0000    0.0000 N   0  0  0  0  0  0  0  0  0  0  0  0
    0.0000    0.0000    0.0000 C   0  0  0  0  0  0  0  0  0  0  0  0
    0.0000    0.0000    0.0000 N   0  0  0  0  0  0  0  0  0  0  0  0
    0.0000    0.0000    0.0000 C   0  0  0  0  0  0  0  0  0  0  0  0
    0.0000    0.0000    0.0000 C   0  0  0  0  0  0  0  0  0  0  0  0
    0.0000    0.0000    0.0000 C   0  0  0  0  0  0  0  0  0  0  0  0
    0.0000    0.0000    0.0000 C   0  0  0  0  0  0  0  0  0  0  0  0
    0.0000    0.0000    0.0000 C   0  0  0  0  0  0  0  0  0  0  0  0
    0.0000    0.0000    0.0000 C   0  0  0  0  0  0  0  0  0  0  0  0
    0.0000    0.0000    0.0000 C   0  0  0  0  0  0  0  0  0  0  0  0
    0.0000    0.0000    0.0000 C   0  0  0  0  0  0  0  0  0  0  0  0
    0.0000    0.0000    0.0000 C   0  0  0  0  0  0  0  0  0  0  0  0
    0.0000    0.0000    0.0000 N   0  0  0  0  0  0  0  0  0  0  0  0
    0.0000    0.0000    0.0000 C   0  0  0  0  0  0  0  0  0  0  0  0
    0.0000    0.0000    0.0000 C   0  0  0  0  0  0  0  0  0  0  0  0
    0.0000    0.0000    0.0000 C   0  0  0  0  0  0  0  0  0  0  0  0
    0.0000    0.0000    0.0000 C   0  0  0  0  0  0  0  0  0  0  0  0
    0.0000    0.0000    0.0000 C   0  0  0  0  0  0  0  0  0  0  0  0
    0.0000    0.0000    0.0000 O   0  0  0  0  0  0  0  0  0  0  0  0
    0.0000    0.0000    0.0000 C   0  0  0  0  0  0  0  0  0  0  0  0
    0.0000    0.0000    0.0000 O   0  0  0  0  0  0  0  0  0  0  0  0
    0.0000    0.0000    0.0000 C   0  0  0  0  0  0  0  0  0  0  0  0
    0.0000    0.0000    0.0000 C   0  0  0  0  0  0  0  0  0  0  0  0
    0.0000    0.0000    0.0000 C   0  0  0  0  0  0  0  0  0  0  0  0
    0.0000    0.0000    0.0000 C   0  0  0  0  0  0  0  0  0  0  0  0
  1  2  2  0
  2  3  1  0
  3  4  1  0
  4  5  1  0
  5  6  1  0
  6  7  2  0
  7  8  1  0
  8  9  2  0
  9 10  1  0
 10 11  2  0
  5 12  1  0
 12 13  1  0
 13 14  1  0
 14 15  1  0
 15 16  1  0
 16 17  1  0
 17 18  2  0
 18 19  1  0
 19 20  2  0
 20 21  1  0
 21 22  1  0
 22 23  1  0
 23 24  1  0
 24 25  2  0
 15 26  1  0
 26 27  1  0
 12  2  1  0
 11  6  1  0
 27 12  1  0
 25 17  1  0
 24 20  1  0
M  END
>  <pIC50>  (83) 
6.25

>  <ChEMBL_ID>  (83) 
CHEMBL326962

>  <document_journal>  (83) 
J. Med. Chem.

>  <bao_endpoint>  (83) 
BAO_0000190

>  <potential_duplicate>  (83) 
False

>  <uo_units>  (83) 
UO_0000065

>  <canonical_smiles>  (83) 
O=C1NCN(c2ccccc2)C13CCN(Cc4ccc5OCOc5c4)CC3

>  <parent_molecule_chembl_id>  (83) 
CHEMBL326962

>  <assay_type>  (83) 
B

>  <src_id>  (83) 
1

>  <ligand_efficiency>  (83) 
{u'le': u'0.32', u'bei': u'17.11', u'sei': u'11.57', u'lle': u'3.87'}

>  <standard_flag>  (83) 
True

>  <molecule_chembl_id>  (83) 
CHEMBL326962

>  <target_organism>  (83) 
Homo sapiens

>  <standard_units>  (83) 
nM

>  <record_id>  (83) 
216630

>  <document_chembl_id>  (83) 
CHEMBL1134625

>  <bao_format>  (83) 
BAO_0000357

>  <data_validity_description>  (83) 
None

>  <activity_id>  (83) 
985302

>  <standard_type>  (83) 
IC50

>  <target_chembl_id>  (83) 
CHEMBL217

>  <data_validity_comment>  (83) 
None

>  <published_value>  (83) 
557

>  <document_year>  (83) 
2001

>  <target_pref_name>  (83) 
Dopamine D2 receptor

>  <assay_chembl_id>  (83) 
CHEMBL671072

>  <standard_relation>  (83) 
=

>  <assay_description>  (83) 
Inhibition of human dopamine receptor D2

>  <published_relation>  (83) 
=

>  <standard_value>  (83) 
557

>  <qudt_units>  (83) 
http://www.openphacts.org/units/Nanomolar

>  <target_tax_id>  (83) 
9606

>  <bao_label>  (83) 
single protein format

>  <published_units>  (83) 
nM

>  <pchembl_value>  (83) 
6.25

>  <published_type>  (83) 
IC50

>  <activity_comment>  (83) 
None

$$$$

     RDKit          

 24 26  0  0  0  0  0  0  0  0999 V2000
    0.0000    0.0000    0.0000 O   0  0  0  0  0  0  0  0  0  0  0  0
    0.0000    0.0000    0.0000 C   0  0  0  0  0  0  0  0  0  0  0  0
    0.0000    0.0000    0.0000 N   0  0  0  0  0  0  0  0  0  0  0  0
    0.0000    0.0000    0.0000 C   0  0  0  0  0  0  0  0  0  0  0  0
    0.0000    0.0000    0.0000 C   0  0  0  0  0  0  0  0  0  0  0  0
    0.0000    0.0000    0.0000 C   0  0  0  0  0  0  0  0  0  0  0  0
    0.0000    0.0000    0.0000 N   0  0  0  0  0  0  0  0  0  0  0  0
    0.0000    0.0000    0.0000 C   0  0  0  0  0  0  0  0  0  0  0  0
    0.0000    0.0000    0.0000 C   0  0  0  0  0  0  0  0  0  0  0  0
    0.0000    0.0000    0.0000 C   0  0  0  0  0  0  0  0  0  0  0  0
    0.0000    0.0000    0.0000 C   0  0  0  0  0  0  0  0  0  0  0  0
    0.0000    0.0000    0.0000 C   0  0  0  0  0  0  0  0  0  0  0  0
    0.0000    0.0000    0.0000 C   0  0  0  0  0  0  0  0  0  0  0  0
    0.0000    0.0000    0.0000 C   0  0  0  0  0  0  0  0  0  0  0  0
    0.0000    0.0000    0.0000 C   0  0  0  0  0  0  0  0  0  0  0  0
    0.0000    0.0000    0.0000 C   0  0  0  0  0  0  0  0  0  0  0  0
    0.0000    0.0000    0.0000 C   0  0  0  0  0  0  0  0  0  0  0  0
    0.0000    0.0000    0.0000 C   0  0  0  0  0  0  0  0  0  0  0  0
    0.0000    0.0000    0.0000 C   0  0  0  0  0  0  0  0  0  0  0  0
    0.0000    0.0000    0.0000 C   0  0  0  0  0  0  0  0  0  0  0  0
    0.0000    0.0000    0.0000 C   0  0  0  0  0  0  0  0  0  0  0  0
    0.0000    0.0000    0.0000 C   0  0  0  0  0  0  0  0  0  0  0  0
    0.0000    0.0000    0.0000 C   0  0  0  0  0  0  0  0  0  0  0  0
    0.0000    0.0000    0.0000 C   0  0  0  0  0  0  0  0  0  0  0  0
  1  2  2  0
  2  3  1  0
  3  4  1  0
  4  5  1  0
  5  6  1  0
  6  7  1  0
  7  8  1  0
  8  9  1  0
  9 10  2  0
 10 11  1  0
 11 12  2  0
 12 13  1  0
 13 14  2  0
  7 15  1  0
 15 16  1  0
  2 17  1  0
 17 18  2  0
 18 19  1  0
 19 20  2  0
 20 21  1  0
 21 22  2  0
 22 23  1  0
 23 24  2  0
 16  4  1  0
 14  9  1  0
 24 19  1  0
M  END
>  <pIC50>  (84) 
5.33

>  <ChEMBL_ID>  (84) 
CHEMBL116233

>  <document_journal>  (84) 
Bioorg. Med. Chem. Lett.

>  <bao_endpoint>  (84) 
BAO_0000190

>  <potential_duplicate>  (84) 
False

>  <uo_units>  (84) 
UO_0000065

>  <canonical_smiles>  (84) 
OC(=O)\C=C\C(=O)O.O=C(NC1CCN(Cc2ccccc2)CC1)\C=C\c3ccccc3

>  <parent_molecule_chembl_id>  (84) 
CHEMBL1180187

>  <assay_type>  (84) 
B

>  <src_id>  (84) 
1

>  <ligand_efficiency>  (84) 
{u'le': u'0.3', u'bei': u'16.63', u'sei': u'16.47', u'lle': u'2.13'}

>  <standard_flag>  (84) 
True

>  <molecule_chembl_id>  (84) 
CHEMBL116233

>  <target_organism>  (84) 
Homo sapiens

>  <standard_units>  (84) 
nM

>  <record_id>  (84) 
213085

>  <document_chembl_id>  (84) 
CHEMBL1127992

>  <bao_format>  (84) 
BAO_0000357

>  <data_validity_description>  (84) 
None

>  <activity_id>  (84) 
994555

>  <standard_type>  (84) 
IC50

>  <target_chembl_id>  (84) 
CHEMBL217

>  <data_validity_comment>  (84) 
None

>  <published_value>  (84) 
4700

>  <document_year>  (84) 
1994

>  <target_pref_name>  (84) 
Dopamine D2 receptor

>  <assay_chembl_id>  (84) 
CHEMBL667743

>  <standard_relation>  (84) 
=

>  <assay_description>  (84) 
Displacement of [3H]-spiperone from dopamine D2 receptor

>  <published_relation>  (84) 
=

>  <standard_value>  (84) 
4700

>  <qudt_units>  (84) 
http://www.openphacts.org/units/Nanomolar

>  <target_tax_id>  (84) 
9606

>  <bao_label>  (84) 
single protein format

>  <published_units>  (84) 
nM

>  <pchembl_value>  (84) 
5.33

>  <published_type>  (84) 
IC50

>  <activity_comment>  (84) 
None

$$$$

     RDKit          

 25 27  0  0  0  0  0  0  0  0999 V2000
    0.0000    0.0000    0.0000 C   0  0  0  0  0  0  0  0  0  0  0  0
    0.0000    0.0000    0.0000 N   0  0  0  0  0  0  0  0  0  0  0  0
    0.0000    0.0000    0.0000 C   0  0  0  0  0  0  0  0  0  0  0  0
    0.0000    0.0000    0.0000 C   0  0  0  0  0  0  0  0  0  0  0  0
    0.0000    0.0000    0.0000 C   0  0  0  0  0  0  0  0  0  0  0  0
    0.0000    0.0000    0.0000 N   0  0  0  0  0  0  0  0  0  0  0  0
    0.0000    0.0000    0.0000 C   0  0  0  0  0  0  0  0  0  0  0  0
    0.0000    0.0000    0.0000 C   0  0  0  0  0  0  0  0  0  0  0  0
    0.0000    0.0000    0.0000 C   0  0  0  0  0  0  0  0  0  0  0  0
    0.0000    0.0000    0.0000 C   0  0  0  0  0  0  0  0  0  0  0  0
    0.0000    0.0000    0.0000 C   0  0  0  0  0  0  0  0  0  0  0  0
    0.0000    0.0000    0.0000 C   0  0  0  0  0  0  0  0  0  0  0  0
    0.0000    0.0000    0.0000 C   0  0  0  0  0  0  0  0  0  0  0  0
    0.0000    0.0000    0.0000 C   0  0  0  0  0  0  0  0  0  0  0  0
    0.0000    0.0000    0.0000 C   0  0  0  0  0  0  0  0  0  0  0  0
    0.0000    0.0000    0.0000 C   0  0  0  0  0  0  0  0  0  0  0  0
    0.0000    0.0000    0.0000 O   0  0  0  0  0  0  0  0  0  0  0  0
    0.0000    0.0000    0.0000 C   0  0  0  0  0  0  0  0  0  0  0  0
    0.0000    0.0000    0.0000 C   0  0  0  0  0  0  0  0  0  0  0  0
    0.0000    0.0000    0.0000 C   0  0  0  0  0  0  0  0  0  0  0  0
    0.0000    0.0000    0.0000 C   0  0  0  0  0  0  0  0  0  0  0  0
    0.0000    0.0000    0.0000 C   0  0  0  0  0  0  0  0  0  0  0  0
    0.0000    0.0000    0.0000 C   0  0  0  0  0  0  0  0  0  0  0  0
    0.0000    0.0000    0.0000 C   0  0  0  0  0  0  0  0  0  0  0  0
    0.0000    0.0000    0.0000 C   0  0  0  0  0  0  0  0  0  0  0  0
  1  2  1  0
  2  3  1  0
  3  4  1  0
  4  5  1  0
  5  6  1  0
  6  7  1  0
  7  8  1  0
  8  9  2  0
  9 10  1  0
 10 11  2  0
 11 12  1  0
 12 13  2  0
  6 14  1  0
 14 15  1  0
  2 16  1  0
 16 17  2  0
 16 18  1  0
 18 19  3  0
 19 20  1  0
 20 21  2  0
 21 22  1  0
 22 23  2  0
 23 24  1  0
 24 25  2  0
 15  3  1  0
 13  8  1  0
 25 20  1  0
M  END
>  <pIC50>  (85) 
5.31

>  <ChEMBL_ID>  (85) 
CHEMBL111964

>  <document_journal>  (85) 
Bioorg. Med. Chem. Lett.

>  <bao_endpoint>  (85) 
BAO_0000190

>  <potential_duplicate>  (85) 
False

>  <uo_units>  (85) 
UO_0000065

>  <canonical_smiles>  (85) 
CN(C1CCN(Cc2ccccc2)CC1)C(=O)C#Cc3ccccc3.OC(=O)\C=C\C(=O)O

>  <parent_molecule_chembl_id>  (85) 
CHEMBL1180033

>  <assay_type>  (85) 
B

>  <src_id>  (85) 
1

>  <ligand_efficiency>  (85) 
{u'le': u'0.29', u'bei': u'15.97', u'sei': u'22.55', u'lle': u'1.78'}

>  <standard_flag>  (85) 
True

>  <molecule_chembl_id>  (85) 
CHEMBL111964

>  <target_organism>  (85) 
Homo sapiens

>  <standard_units>  (85) 
nM

>  <record_id>  (85) 
213078

>  <document_chembl_id>  (85) 
CHEMBL1127992

>  <bao_format>  (85) 
BAO_0000357

>  <data_validity_description>  (85) 
None

>  <activity_id>  (85) 
995831

>  <standard_type>  (85) 
IC50

>  <target_chembl_id>  (85) 
CHEMBL217

>  <data_validity_comment>  (85) 
None

>  <published_value>  (85) 
4900

>  <document_year>  (85) 
1994

>  <target_pref_name>  (85) 
Dopamine D2 receptor

>  <assay_chembl_id>  (85) 
CHEMBL667743

>  <standard_relation>  (85) 
=

>  <assay_description>  (85) 
Displacement of [3H]-spiperone from dopamine D2 receptor

>  <published_relation>  (85) 
=

>  <standard_value>  (85) 
4900

>  <qudt_units>  (85) 
http://www.openphacts.org/units/Nanomolar

>  <target_tax_id>  (85) 
9606

>  <bao_label>  (85) 
single protein format

>  <published_units>  (85) 
nM

>  <pchembl_value>  (85) 
5.31

>  <published_type>  (85) 
IC50

>  <activity_comment>  (85) 
None

$$$$

     RDKit          

 29 32  0  0  0  0  0  0  0  0999 V2000
    0.0000    0.0000    0.0000 C   0  0  0  0  0  0  0  0  0  0  0  0
    0.0000    0.0000    0.0000 C   0  0  0  0  0  0  0  0  0  0  0  0
    0.0000    0.0000    0.0000 C   0  0  0  0  0  0  0  0  0  0  0  0
    0.0000    0.0000    0.0000 C   0  0  0  0  0  0  0  0  0  0  0  0
    0.0000    0.0000    0.0000 C   0  0  0  0  0  0  0  0  0  0  0  0
    0.0000    0.0000    0.0000 C   0  0  0  0  0  0  0  0  0  0  0  0
    0.0000    0.0000    0.0000 C   0  0  0  0  0  0  0  0  0  0  0  0
    0.0000    0.0000    0.0000 C   0  0  0  0  0  0  0  0  0  0  0  0
    0.0000    0.0000    0.0000 C   0  0  0  0  0  0  0  0  0  0  0  0
    0.0000    0.0000    0.0000 N   0  0  0  0  0  0  0  0  0  0  0  0
    0.0000    0.0000    0.0000 C   0  0  0  0  0  0  0  0  0  0  0  0
    0.0000    0.0000    0.0000 C   0  0  0  0  0  0  0  0  0  0  0  0
    0.0000    0.0000    0.0000 C   0  0  0  0  0  0  0  0  0  0  0  0
    0.0000    0.0000    0.0000 N   0  0  0  0  0  0  0  0  0  0  0  0
    0.0000    0.0000    0.0000 C   0  0  0  0  0  0  0  0  0  0  0  0
    0.0000    0.0000    0.0000 C   0  0  0  0  0  0  0  0  0  0  0  0
    0.0000    0.0000    0.0000 C   0  0  0  0  0  0  0  0  0  0  0  0
    0.0000    0.0000    0.0000 C   0  0  0  0  0  0  0  0  0  0  0  0
    0.0000    0.0000    0.0000 C   0  0  0  0  0  0  0  0  0  0  0  0
    0.0000    0.0000    0.0000 C   0  0  0  0  0  0  0  0  0  0  0  0
    0.0000    0.0000    0.0000 C   0  0  0  0  0  0  0  0  0  0  0  0
    0.0000    0.0000    0.0000 C   0  0  0  0  0  0  0  0  0  0  0  0
    0.0000    0.0000    0.0000 C   0  0  0  0  0  0  0  0  0  0  0  0
    0.0000    0.0000    0.0000 C   0  0  0  0  0  0  0  0  0  0  0  0
    0.0000    0.0000    0.0000 C   0  0  0  0  0  0  0  0  0  0  0  0
    0.0000    0.0000    0.0000 C   0  0  0  0  0  0  0  0  0  0  0  0
    0.0000    0.0000    0.0000 C   0  0  0  0  0  0  0  0  0  0  0  0
    0.0000    0.0000    0.0000 C   0  0  0  0  0  0  0  0  0  0  0  0
    0.0000    0.0000    0.0000 C   0  0  0  0  0  0  0  0  0  0  0  0
  1  2  1  0
  2  3  3  0
  3  4  1  0
  4  5  2  0
  5  6  1  0
  6  7  2  0
  7  8  1  0
  8  9  2  0
  1 10  1  0
 10 11  1  0
 11 12  1  0
 12 13  1  0
 13 14  1  0
 14 15  1  0
 15 16  1  0
 16 17  2  0
 17 18  1  0
 18 19  2  0
 19 20  1  0
 20 21  2  0
 14 22  1  0
 22 23  1  0
 10 24  1  0
 24 25  2  0
 25 26  1  0
 26 27  2  0
 27 28  1  0
 28 29  2  0
  9  4  1  0
 23 11  1  0
 21 16  1  0
 29 24  1  0
M  END
>  <pIC50>  (86) 
6.05

>  <ChEMBL_ID>  (86) 
CHEMBL113282

>  <document_journal>  (86) 
Bioorg. Med. Chem. Lett.

>  <bao_endpoint>  (86) 
BAO_0000190

>  <potential_duplicate>  (86) 
False

>  <uo_units>  (86) 
UO_0000065

>  <canonical_smiles>  (86) 
OC(=O)\C=C\C(=O)O.C(C#Cc1ccccc1)N(C2CCN(Cc3ccccc3)CC2)c4ccccc4

>  <parent_molecule_chembl_id>  (86) 
CHEMBL1180091

>  <assay_type>  (86) 
B

>  <src_id>  (86) 
1

>  <ligand_efficiency>  (86) 
{u'le': u'0.28', u'bei': u'15.9', u'sei': u'93.37', u'lle': u'0.19'}

>  <standard_flag>  (86) 
True

>  <molecule_chembl_id>  (86) 
CHEMBL113282

>  <target_organism>  (86) 
Homo sapiens

>  <standard_units>  (86) 
nM

>  <record_id>  (86) 
213080

>  <document_chembl_id>  (86) 
CHEMBL1127992

>  <bao_format>  (86) 
BAO_0000357

>  <data_validity_description>  (86) 
None

>  <activity_id>  (86) 
1003118

>  <standard_type>  (86) 
IC50

>  <target_chembl_id>  (86) 
CHEMBL217

>  <data_validity_comment>  (86) 
None

>  <published_value>  (86) 
890

>  <document_year>  (86) 
1994

>  <target_pref_name>  (86) 
Dopamine D2 receptor

>  <assay_chembl_id>  (86) 
CHEMBL667743

>  <standard_relation>  (86) 
=

>  <assay_description>  (86) 
Displacement of [3H]-spiperone from dopamine D2 receptor

>  <published_relation>  (86) 
=

>  <standard_value>  (86) 
890

>  <qudt_units>  (86) 
http://www.openphacts.org/units/Nanomolar

>  <target_tax_id>  (86) 
9606

>  <bao_label>  (86) 
single protein format

>  <published_units>  (86) 
nM

>  <pchembl_value>  (86) 
6.05

>  <published_type>  (86) 
IC50

>  <activity_comment>  (86) 
None

$$$$

     RDKit          

 30 33  0  0  0  0  0  0  0  0999 V2000
    0.0000    0.0000    0.0000 O   0  0  0  0  0  0  0  0  0  0  0  0
    0.0000    0.0000    0.0000 C   0  0  0  0  0  0  0  0  0  0  0  0
    0.0000    0.0000    0.0000 C   0  0  0  0  0  0  0  0  0  0  0  0
    0.0000    0.0000    0.0000 C   0  0  0  0  0  0  0  0  0  0  0  0
    0.0000    0.0000    0.0000 C   0  0  0  0  0  0  0  0  0  0  0  0
    0.0000    0.0000    0.0000 C   0  0  0  0  0  0  0  0  0  0  0  0
    0.0000    0.0000    0.0000 C   0  0  0  0  0  0  0  0  0  0  0  0
    0.0000    0.0000    0.0000 C   0  0  0  0  0  0  0  0  0  0  0  0
    0.0000    0.0000    0.0000 C   0  0  0  0  0  0  0  0  0  0  0  0
    0.0000    0.0000    0.0000 C   0  0  0  0  0  0  0  0  0  0  0  0
    0.0000    0.0000    0.0000 N   0  0  0  0  0  0  0  0  0  0  0  0
    0.0000    0.0000    0.0000 C   0  0  0  0  0  0  0  0  0  0  0  0
    0.0000    0.0000    0.0000 C   0  0  0  0  0  0  0  0  0  0  0  0
    0.0000    0.0000    0.0000 C   0  0  0  0  0  0  0  0  0  0  0  0
    0.0000    0.0000    0.0000 N   0  0  0  0  0  0  0  0  0  0  0  0
    0.0000    0.0000    0.0000 C   0  0  0  0  0  0  0  0  0  0  0  0
    0.0000    0.0000    0.0000 C   0  0  0  0  0  0  0  0  0  0  0  0
    0.0000    0.0000    0.0000 C   0  0  0  0  0  0  0  0  0  0  0  0
    0.0000    0.0000    0.0000 C   0  0  0  0  0  0  0  0  0  0  0  0
    0.0000    0.0000    0.0000 C   0  0  0  0  0  0  0  0  0  0  0  0
    0.0000    0.0000    0.0000 C   0  0  0  0  0  0  0  0  0  0  0  0
    0.0000    0.0000    0.0000 C   0  0  0  0  0  0  0  0  0  0  0  0
    0.0000    0.0000    0.0000 C   0  0  0  0  0  0  0  0  0  0  0  0
    0.0000    0.0000    0.0000 C   0  0  0  0  0  0  0  0  0  0  0  0
    0.0000    0.0000    0.0000 C   0  0  0  0  0  0  0  0  0  0  0  0
    0.0000    0.0000    0.0000 C   0  0  0  0  0  0  0  0  0  0  0  0
    0.0000    0.0000    0.0000 C   0  0  0  0  0  0  0  0  0  0  0  0
    0.0000    0.0000    0.0000 C   0  0  0  0  0  0  0  0  0  0  0  0
    0.0000    0.0000    0.0000 C   0  0  0  0  0  0  0  0  0  0  0  0
    0.0000    0.0000    0.0000 C   0  0  0  0  0  0  0  0  0  0  0  0
  1  2  2  0
  2  3  1  0
  3  4  3  0
  4  5  1  0
  5  6  2  0
  6  7  1  0
  7  8  2  0
  8  9  1  0
  9 10  2  0
  2 11  1  0
 11 12  1  0
 12 13  1  0
 13 14  1  0
 14 15  1  0
 15 16  1  0
 16 17  1  0
 17 18  2  0
 18 19  1  0
 19 20  2  0
 20 21  1  0
 21 22  2  0
 15 23  1  0
 23 24  1  0
 11 25  1  0
 25 26  2  0
 26 27  1  0
 27 28  2  0
 28 29  1  0
 29 30  2  0
 10  5  1  0
 24 12  1  0
 22 17  1  0
 30 25  1  0
M  END
>  <pIC50>  (87) 
5.82

>  <ChEMBL_ID>  (87) 
CHEMBL112170

>  <document_journal>  (87) 
Bioorg. Med. Chem. Lett.

>  <bao_endpoint>  (87) 
BAO_0000190

>  <potential_duplicate>  (87) 
False

>  <uo_units>  (87) 
UO_0000065

>  <canonical_smiles>  (87) 
OC(=O)\C=C\C(=O)O.O=C(C#Cc1ccccc1)N(C2CCN(Cc3ccccc3)CC2)c4ccccc4

>  <parent_molecule_chembl_id>  (87) 
CHEMBL1180044

>  <assay_type>  (87) 
B

>  <src_id>  (87) 
1

>  <ligand_efficiency>  (87) 
{u'le': u'0.27', u'bei': u'14.76', u'sei': u'24.73', u'lle': u'0.71'}

>  <standard_flag>  (87) 
True

>  <molecule_chembl_id>  (87) 
CHEMBL112170

>  <target_organism>  (87) 
Homo sapiens

>  <standard_units>  (87) 
nM

>  <record_id>  (87) 
213077

>  <document_chembl_id>  (87) 
CHEMBL1127992

>  <bao_format>  (87) 
BAO_0000357

>  <data_validity_description>  (87) 
None

>  <activity_id>  (87) 
1008266

>  <standard_type>  (87) 
IC50

>  <target_chembl_id>  (87) 
CHEMBL217

>  <data_validity_comment>  (87) 
None

>  <published_value>  (87) 
1500

>  <document_year>  (87) 
1994

>  <target_pref_name>  (87) 
Dopamine D2 receptor

>  <assay_chembl_id>  (87) 
CHEMBL667743

>  <standard_relation>  (87) 
=

>  <assay_description>  (87) 
Displacement of [3H]-spiperone from dopamine D2 receptor

>  <published_relation>  (87) 
=

>  <standard_value>  (87) 
1500

>  <qudt_units>  (87) 
http://www.openphacts.org/units/Nanomolar

>  <target_tax_id>  (87) 
9606

>  <bao_label>  (87) 
single protein format

>  <published_units>  (87) 
nM

>  <pchembl_value>  (87) 
5.82

>  <published_type>  (87) 
IC50

>  <activity_comment>  (87) 
None

$$$$

     RDKit          

 25 27  0  0  0  0  0  0  0  0999 V2000
    0.0000    0.0000    0.0000 C   0  0  0  0  0  0  0  0  0  0  0  0
    0.0000    0.0000    0.0000 N   0  0  0  0  0  0  0  0  0  0  0  0
    0.0000    0.0000    0.0000 C   0  0  0  0  0  0  0  0  0  0  0  0
    0.0000    0.0000    0.0000 C   0  0  0  0  0  0  0  0  0  0  0  0
    0.0000    0.0000    0.0000 C   0  0  0  0  0  0  0  0  0  0  0  0
    0.0000    0.0000    0.0000 N   0  0  0  0  0  0  0  0  0  0  0  0
    0.0000    0.0000    0.0000 C   0  0  0  0  0  0  0  0  0  0  0  0
    0.0000    0.0000    0.0000 C   0  0  0  0  0  0  0  0  0  0  0  0
    0.0000    0.0000    0.0000 C   0  0  0  0  0  0  0  0  0  0  0  0
    0.0000    0.0000    0.0000 C   0  0  0  0  0  0  0  0  0  0  0  0
    0.0000    0.0000    0.0000 C   0  0  0  0  0  0  0  0  0  0  0  0
    0.0000    0.0000    0.0000 C   0  0  0  0  0  0  0  0  0  0  0  0
    0.0000    0.0000    0.0000 C   0  0  0  0  0  0  0  0  0  0  0  0
    0.0000    0.0000    0.0000 C   0  0  0  0  0  0  0  0  0  0  0  0
    0.0000    0.0000    0.0000 C   0  0  0  0  0  0  0  0  0  0  0  0
    0.0000    0.0000    0.0000 C   0  0  0  0  0  0  0  0  0  0  0  0
    0.0000    0.0000    0.0000 O   0  0  0  0  0  0  0  0  0  0  0  0
    0.0000    0.0000    0.0000 C   0  0  0  0  0  0  0  0  0  0  0  0
    0.0000    0.0000    0.0000 C   0  0  0  0  0  0  0  0  0  0  0  0
    0.0000    0.0000    0.0000 C   0  0  0  0  0  0  0  0  0  0  0  0
    0.0000    0.0000    0.0000 C   0  0  0  0  0  0  0  0  0  0  0  0
    0.0000    0.0000    0.0000 C   0  0  0  0  0  0  0  0  0  0  0  0
    0.0000    0.0000    0.0000 C   0  0  0  0  0  0  0  0  0  0  0  0
    0.0000    0.0000    0.0000 C   0  0  0  0  0  0  0  0  0  0  0  0
    0.0000    0.0000    0.0000 C   0  0  0  0  0  0  0  0  0  0  0  0
  1  2  1  0
  2  3  1  0
  3  4  1  0
  4  5  1  0
  5  6  1  0
  6  7  1  0
  7  8  1  0
  8  9  2  0
  9 10  1  0
 10 11  2  0
 11 12  1  0
 12 13  2  0
  6 14  1  0
 14 15  1  0
  2 16  1  0
 16 17  2  0
 16 18  1  0
 18 19  2  0
 19 20  1  0
 20 21  2  0
 21 22  1  0
 22 23  2  0
 23 24  1  0
 24 25  2  0
 15  3  1  0
 13  8  1  0
 25 20  1  0
M  END
>  <pIC50>  (88) 
5.15

>  <ChEMBL_ID>  (88) 
CHEMBL325063

>  <document_journal>  (88) 
Bioorg. Med. Chem. Lett.

>  <bao_endpoint>  (88) 
BAO_0000190

>  <potential_duplicate>  (88) 
False

>  <uo_units>  (88) 
UO_0000065

>  <canonical_smiles>  (88) 
CN(C1CCN(Cc2ccccc2)CC1)C(=O)\C=C\c3ccccc3.OC(=O)\C=C\C(=O)O

>  <parent_molecule_chembl_id>  (88) 
CHEMBL1183940

>  <assay_type>  (88) 
B

>  <src_id>  (88) 
1

>  <ligand_efficiency>  (88) 
{u'le': u'0.28', u'bei': u'15.39', u'sei': u'21.86', u'lle': u'1.74'}

>  <standard_flag>  (88) 
True

>  <molecule_chembl_id>  (88) 
CHEMBL325063

>  <target_organism>  (88) 
Homo sapiens

>  <standard_units>  (88) 
nM

>  <record_id>  (88) 
213084

>  <document_chembl_id>  (88) 
CHEMBL1127992

>  <bao_format>  (88) 
BAO_0000357

>  <data_validity_description>  (88) 
None

>  <activity_id>  (88) 
1014480

>  <standard_type>  (88) 
IC50

>  <target_chembl_id>  (88) 
CHEMBL217

>  <data_validity_comment>  (88) 
None

>  <published_value>  (88) 
7100

>  <document_year>  (88) 
1994

>  <target_pref_name>  (88) 
Dopamine D2 receptor

>  <assay_chembl_id>  (88) 
CHEMBL667743

>  <standard_relation>  (88) 
=

>  <assay_description>  (88) 
Displacement of [3H]-spiperone from dopamine D2 receptor

>  <published_relation>  (88) 
=

>  <standard_value>  (88) 
7100

>  <qudt_units>  (88) 
http://www.openphacts.org/units/Nanomolar

>  <target_tax_id>  (88) 
9606

>  <bao_label>  (88) 
single protein format

>  <published_units>  (88) 
nM

>  <pchembl_value>  (88) 
5.15

>  <published_type>  (88) 
IC50

>  <activity_comment>  (88) 
None

$$$$

     RDKit          

 24 26  0  0  0  0  0  0  0  0999 V2000
    0.0000    0.0000    0.0000 C   0  0  0  0  0  0  0  0  0  0  0  0
    0.0000    0.0000    0.0000 N   0  0  0  0  0  0  0  0  0  0  0  0
    0.0000    0.0000    0.0000 C   0  0  0  0  0  0  0  0  0  0  0  0
    0.0000    0.0000    0.0000 C   0  0  0  0  0  0  0  0  0  0  0  0
    0.0000    0.0000    0.0000 C   0  0  0  0  0  0  0  0  0  0  0  0
    0.0000    0.0000    0.0000 C   0  0  0  0  0  0  0  0  0  0  0  0
    0.0000    0.0000    0.0000 C   0  0  0  0  0  0  0  0  0  0  0  0
    0.0000    0.0000    0.0000 C   0  0  0  0  0  0  0  0  0  0  0  0
    0.0000    0.0000    0.0000 C   0  0  0  0  0  0  0  0  0  0  0  0
    0.0000    0.0000    0.0000 C   0  0  0  0  0  0  0  0  0  0  0  0
    0.0000    0.0000    0.0000 C   0  0  0  0  0  0  0  0  0  0  0  0
    0.0000    0.0000    0.0000 C   0  0  0  0  0  0  0  0  0  0  0  0
    0.0000    0.0000    0.0000 C   0  0  0  0  0  0  0  0  0  0  0  0
    0.0000    0.0000    0.0000 C   0  0  0  0  0  0  0  0  0  0  0  0
    0.0000    0.0000    0.0000 N   0  0  0  0  0  0  0  0  0  0  0  0
    0.0000    0.0000    0.0000 C   0  0  0  0  0  0  0  0  0  0  0  0
    0.0000    0.0000    0.0000 C   0  0  0  0  0  0  0  0  0  0  0  0
    0.0000    0.0000    0.0000 C   0  0  0  0  0  0  0  0  0  0  0  0
    0.0000    0.0000    0.0000 C   0  0  0  0  0  0  0  0  0  0  0  0
    0.0000    0.0000    0.0000 C   0  0  0  0  0  0  0  0  0  0  0  0
    0.0000    0.0000    0.0000 C   0  0  0  0  0  0  0  0  0  0  0  0
    0.0000    0.0000    0.0000 C   0  0  0  0  0  0  0  0  0  0  0  0
    0.0000    0.0000    0.0000 C   0  0  0  0  0  0  0  0  0  0  0  0
    0.0000    0.0000    0.0000 C   0  0  0  0  0  0  0  0  0  0  0  0
  1  2  1  0
  2  3  1  0
  3  4  1  0
  4  5  3  0
  5  6  1  0
  6  7  2  0
  7  8  1  0
  8  9  2  0
  9 10  1  0
 10 11  2  0
  2 12  1  0
 12 13  1  0
 13 14  1  0
 14 15  1  0
 15 16  1  0
 16 17  1  0
 17 18  2  0
 18 19  1  0
 19 20  2  0
 20 21  1  0
 21 22  2  0
 15 23  1  0
 23 24  1  0
 11  6  1  0
 24 12  1  0
 22 17  1  0
M  END
>  <pIC50>  (89) 
5.39

>  <ChEMBL_ID>  (89) 
CHEMBL112957

>  <document_journal>  (89) 
Bioorg. Med. Chem. Lett.

>  <bao_endpoint>  (89) 
BAO_0000190

>  <potential_duplicate>  (89) 
False

>  <uo_units>  (89) 
UO_0000065

>  <canonical_smiles>  (89) 
CN(CC#Cc1ccccc1)C2CCN(Cc3ccccc3)CC2.OC(=O)\C=C\C(=O)O

>  <parent_molecule_chembl_id>  (89) 
CHEMBL1180083

>  <assay_type>  (89) 
B

>  <src_id>  (89) 
1

>  <ligand_efficiency>  (89) 
{u'le': u'0.31', u'bei': u'16.92', u'sei': u'83.14', u'lle': u'1.2'}

>  <standard_flag>  (89) 
True

>  <molecule_chembl_id>  (89) 
CHEMBL112957

>  <target_organism>  (89) 
Homo sapiens

>  <standard_units>  (89) 
nM

>  <record_id>  (89) 
213081

>  <document_chembl_id>  (89) 
CHEMBL1127992

>  <bao_format>  (89) 
BAO_0000357

>  <data_validity_description>  (89) 
None

>  <activity_id>  (89) 
1015877

>  <standard_type>  (89) 
IC50

>  <target_chembl_id>  (89) 
CHEMBL217

>  <data_validity_comment>  (89) 
None

>  <published_value>  (89) 
4100

>  <document_year>  (89) 
1994

>  <target_pref_name>  (89) 
Dopamine D2 receptor

>  <assay_chembl_id>  (89) 
CHEMBL667743

>  <standard_relation>  (89) 
=

>  <assay_description>  (89) 
Displacement of [3H]-spiperone from dopamine D2 receptor

>  <published_relation>  (89) 
=

>  <standard_value>  (89) 
4100

>  <qudt_units>  (89) 
http://www.openphacts.org/units/Nanomolar

>  <target_tax_id>  (89) 
9606

>  <bao_label>  (89) 
single protein format

>  <published_units>  (89) 
nM

>  <pchembl_value>  (89) 
5.39

>  <published_type>  (89) 
IC50

>  <activity_comment>  (89) 
None

$$$$

     RDKit          

 24 26  0  0  0  0  0  0  0  0999 V2000
    0.0000    0.0000    0.0000 O   0  0  0  0  0  0  0  0  0  0  0  0
    0.0000    0.0000    0.0000 C   0  0  0  0  0  0  0  0  0  0  0  0
    0.0000    0.0000    0.0000 N   0  0  0  0  0  0  0  0  0  0  0  0
    0.0000    0.0000    0.0000 C   0  0  0  0  0  0  0  0  0  0  0  0
    0.0000    0.0000    0.0000 C   0  0  0  0  0  0  0  0  0  0  0  0
    0.0000    0.0000    0.0000 C   0  0  0  0  0  0  0  0  0  0  0  0
    0.0000    0.0000    0.0000 N   0  0  0  0  0  0  0  0  0  0  0  0
    0.0000    0.0000    0.0000 C   0  0  0  0  0  0  0  0  0  0  0  0
    0.0000    0.0000    0.0000 C   0  0  0  0  0  0  0  0  0  0  0  0
    0.0000    0.0000    0.0000 C   0  0  0  0  0  0  0  0  0  0  0  0
    0.0000    0.0000    0.0000 C   0  0  0  0  0  0  0  0  0  0  0  0
    0.0000    0.0000    0.0000 C   0  0  0  0  0  0  0  0  0  0  0  0
    0.0000    0.0000    0.0000 C   0  0  0  0  0  0  0  0  0  0  0  0
    0.0000    0.0000    0.0000 C   0  0  0  0  0  0  0  0  0  0  0  0
    0.0000    0.0000    0.0000 C   0  0  0  0  0  0  0  0  0  0  0  0
    0.0000    0.0000    0.0000 C   0  0  0  0  0  0  0  0  0  0  0  0
    0.0000    0.0000    0.0000 C   0  0  0  0  0  0  0  0  0  0  0  0
    0.0000    0.0000    0.0000 C   0  0  0  0  0  0  0  0  0  0  0  0
    0.0000    0.0000    0.0000 C   0  0  0  0  0  0  0  0  0  0  0  0
    0.0000    0.0000    0.0000 C   0  0  0  0  0  0  0  0  0  0  0  0
    0.0000    0.0000    0.0000 C   0  0  0  0  0  0  0  0  0  0  0  0
    0.0000    0.0000    0.0000 C   0  0  0  0  0  0  0  0  0  0  0  0
    0.0000    0.0000    0.0000 C   0  0  0  0  0  0  0  0  0  0  0  0
    0.0000    0.0000    0.0000 C   0  0  0  0  0  0  0  0  0  0  0  0
  1  2  2  0
  2  3  1  0
  3  4  1  0
  4  5  1  0
  5  6  1  0
  6  7  1  0
  7  8  1  0
  8  9  1  0
  9 10  2  0
 10 11  1  0
 11 12  2  0
 12 13  1  0
 13 14  2  0
  7 15  1  0
 15 16  1  0
  2 17  1  0
 17 18  3  0
 18 19  1  0
 19 20  2  0
 20 21  1  0
 21 22  2  0
 22 23  1  0
 23 24  2  0
 16  4  1  0
 14  9  1  0
 24 19  1  0
M  END
>  <pIC50>  (90) 
5.6

>  <ChEMBL_ID>  (90) 
CHEMBL113449

>  <document_journal>  (90) 
Bioorg. Med. Chem. Lett.

>  <bao_endpoint>  (90) 
BAO_0000190

>  <potential_duplicate>  (90) 
False

>  <uo_units>  (90) 
UO_0000065

>  <canonical_smiles>  (90) 
OC(=O)\C=C\C(=O)O.O=C(NC1CCN(Cc2ccccc2)CC1)C#Cc3ccccc3

>  <parent_molecule_chembl_id>  (90) 
CHEMBL1180095

>  <assay_type>  (90) 
B

>  <src_id>  (90) 
1

>  <ligand_efficiency>  (90) 
{u'le': u'0.32', u'bei': u'17.59', u'sei': u'17.32', u'lle': u'2.28'}

>  <standard_flag>  (90) 
True

>  <molecule_chembl_id>  (90) 
CHEMBL113449

>  <target_organism>  (90) 
Homo sapiens

>  <standard_units>  (90) 
nM

>  <record_id>  (90) 
213079

>  <document_chembl_id>  (90) 
CHEMBL1127992

>  <bao_format>  (90) 
BAO_0000357

>  <data_validity_description>  (90) 
None

>  <activity_id>  (90) 
1019807

>  <standard_type>  (90) 
IC50

>  <target_chembl_id>  (90) 
CHEMBL217

>  <data_validity_comment>  (90) 
None

>  <published_value>  (90) 
2500

>  <document_year>  (90) 
1994

>  <target_pref_name>  (90) 
Dopamine D2 receptor

>  <assay_chembl_id>  (90) 
CHEMBL667743

>  <standard_relation>  (90) 
=

>  <assay_description>  (90) 
Displacement of [3H]-spiperone from dopamine D2 receptor

>  <published_relation>  (90) 
=

>  <standard_value>  (90) 
2500

>  <qudt_units>  (90) 
http://www.openphacts.org/units/Nanomolar

>  <target_tax_id>  (90) 
9606

>  <bao_label>  (90) 
single protein format

>  <published_units>  (90) 
nM

>  <pchembl_value>  (90) 
5.6

>  <published_type>  (90) 
IC50

>  <activity_comment>  (90) 
None

$$$$

     RDKit          

 31 34  0  0  0  0  0  0  0  0999 V2000
    0.0000    0.0000    0.0000 C   0  0  0  0  0  0  0  0  0  0  0  0
    0.0000    0.0000    0.0000 O   0  0  0  0  0  0  0  0  0  0  0  0
    0.0000    0.0000    0.0000 C   0  0  0  0  0  0  0  0  0  0  0  0
    0.0000    0.0000    0.0000 C   0  0  0  0  0  0  0  0  0  0  0  0
    0.0000    0.0000    0.0000 C   0  0  0  0  0  0  0  0  0  0  0  0
    0.0000    0.0000    0.0000 C   0  0  0  0  0  0  0  0  0  0  0  0
    0.0000    0.0000    0.0000 C   0  0  0  0  0  0  0  0  0  0  0  0
    0.0000    0.0000    0.0000 C   0  0  0  0  0  0  0  0  0  0  0  0
    0.0000    0.0000    0.0000 C   0  0  0  0  0  0  0  0  0  0  0  0
    0.0000    0.0000    0.0000 C   0  0  0  0  0  0  0  0  0  0  0  0
    0.0000    0.0000    0.0000 C   0  0  0  0  0  0  0  0  0  0  0  0
    0.0000    0.0000    0.0000 C   0  0  0  0  0  0  0  0  0  0  0  0
    0.0000    0.0000    0.0000 N   0  0  0  0  0  0  0  0  0  0  0  0
    0.0000    0.0000    0.0000 C   0  0  0  0  0  0  0  0  0  0  0  0
    0.0000    0.0000    0.0000 O   0  0  0  0  0  0  0  0  0  0  0  0
    0.0000    0.0000    0.0000 C   0  0  0  0  0  0  0  0  0  0  0  0
    0.0000    0.0000    0.0000 C   0  0  0  0  0  0  0  0  0  0  0  0
    0.0000    0.0000    0.0000 N   0  0  0  0  0  0  0  0  0  0  0  0
    0.0000    0.0000    0.0000 C   0  0  0  0  0  0  0  0  0  0  0  0
    0.0000    0.0000    0.0000 C   0  0  0  0  0  0  0  0  0  0  0  0
    0.0000    0.0000    0.0000 N   0  0  0  0  0  0  0  0  0  0  0  0
    0.0000    0.0000    0.0000 C   0  0  0  0  0  0  0  0  0  0  0  0
    0.0000    0.0000    0.0000 C   0  0  0  0  0  0  0  0  0  0  0  0
    0.0000    0.0000    0.0000 C   0  0  0  0  0  0  0  0  0  0  0  0
    0.0000    0.0000    0.0000 C   0  0  0  0  0  0  0  0  0  0  0  0
    0.0000    0.0000    0.0000 C   0  0  0  0  0  0  0  0  0  0  0  0
    0.0000    0.0000    0.0000 C   0  0  0  0  0  0  0  0  0  0  0  0
    0.0000    0.0000    0.0000 C   0  0  0  0  0  0  0  0  0  0  0  0
    0.0000    0.0000    0.0000 C   0  0  0  0  0  0  0  0  0  0  0  0
    0.0000    0.0000    0.0000 O   0  0  0  0  0  0  0  0  0  0  0  0
    0.0000    0.0000    0.0000 C   0  0  0  0  0  0  0  0  0  0  0  0
  1  2  1  0
  2  3  1  0
  3  4  2  0
  4  5  1  0
  5  6  2  0
  6  7  1  0
  7  8  1  0
  8  9  1  0
  9 10  1  0
 10 11  1  0
 11 12  1  0
  9 13  1  0
 13 14  1  0
 14 15  2  0
 14 16  1  0
 16 17  1  0
 17 18  1  0
 18 19  1  0
 19 20  1  0
 20 21  1  0
 21 22  1  0
 22 23  1  0
 21 24  1  0
 24 25  2  0
 25 26  1  0
 26 27  2  0
 27 28  1  0
 28 29  2  0
 29 30  1  0
 30 31  1  0
 12  3  1  0
 12  7  2  0
 23 18  1  0
 29 24  1  0
M  END
>  <pIC50>  (91) 
6.12

>  <ChEMBL_ID>  (91) 
CHEMBL359002

>  <document_journal>  (91) 
J. Med. Chem.

>  <bao_endpoint>  (91) 
BAO_0000190

>  <potential_duplicate>  (91) 
False

>  <uo_units>  (91) 
UO_0000065

>  <canonical_smiles>  (91) 
COc1cccc2CC(CCc12)NC(=O)CCN3CCN(CC3)c4ccccc4OC

>  <parent_molecule_chembl_id>  (91) 
CHEMBL359002

>  <assay_type>  (91) 
B

>  <src_id>  (91) 
1

>  <ligand_efficiency>  (91) 
{u'le': u'0.27', u'bei': u'14.45', u'sei': u'11.32', u'lle': u'2.43'}

>  <standard_flag>  (91) 
True

>  <molecule_chembl_id>  (91) 
CHEMBL359002

>  <target_organism>  (91) 
Homo sapiens

>  <standard_units>  (91) 
nM

>  <record_id>  (91) 
283091

>  <document_chembl_id>  (91) 
CHEMBL1131412

>  <bao_format>  (91) 
BAO_0000357

>  <data_validity_description>  (91) 
None

>  <activity_id>  (91) 
1033105

>  <standard_type>  (91) 
IC50

>  <target_chembl_id>  (91) 
CHEMBL217

>  <data_validity_comment>  (91) 
None

>  <published_value>  (91) 
761

>  <document_year>  (91) 
1998

>  <target_pref_name>  (91) 
Dopamine D2 receptor

>  <assay_chembl_id>  (91) 
CHEMBL670113

>  <standard_relation>  (91) 
=

>  <assay_description>  (91) 
In vitro binding affinity at human cloned Dopamine receptor D2 by [3H]spiroperidol displacement.

>  <published_relation>  (91) 
=

>  <standard_value>  (91) 
761

>  <qudt_units>  (91) 
http://www.openphacts.org/units/Nanomolar

>  <target_tax_id>  (91) 
9606

>  <bao_label>  (91) 
single protein format

>  <published_units>  (91) 
nM

>  <pchembl_value>  (91) 
6.12

>  <published_type>  (91) 
IC50

>  <activity_comment>  (91) 
None

$$$$

     RDKit          

 27 29  0  0  0  0  0  0  0  0999 V2000
    0.0000    0.0000    0.0000 C   0  0  0  0  0  0  0  0  0  0  0  0
    0.0000    0.0000    0.0000 O   0  0  0  0  0  0  0  0  0  0  0  0
    0.0000    0.0000    0.0000 C   0  0  0  0  0  0  0  0  0  0  0  0
    0.0000    0.0000    0.0000 C   0  0  0  0  0  0  0  0  0  0  0  0
    0.0000    0.0000    0.0000 C   0  0  0  0  0  0  0  0  0  0  0  0
    0.0000    0.0000    0.0000 C   0  0  0  0  0  0  0  0  0  0  0  0
    0.0000    0.0000    0.0000 C   0  0  0  0  0  0  0  0  0  0  0  0
    0.0000    0.0000    0.0000 C   0  0  0  0  0  0  0  0  0  0  0  0
    0.0000    0.0000    0.0000 N   0  0  0  0  0  0  0  0  0  0  0  0
    0.0000    0.0000    0.0000 C   0  0  0  0  0  0  0  0  0  0  0  0
    0.0000    0.0000    0.0000 C   0  0  0  0  0  0  0  0  0  0  0  0
    0.0000    0.0000    0.0000 N   0  0  0  0  0  0  0  0  0  0  0  0
    0.0000    0.0000    0.0000 C   0  0  0  0  0  0  0  0  0  0  0  0
    0.0000    0.0000    0.0000 C   0  0  0  0  0  0  0  0  0  0  0  0
    0.0000    0.0000    0.0000 N   0  0  0  0  0  0  0  0  0  0  0  0
    0.0000    0.0000    0.0000 C   0  0  0  0  0  0  0  0  0  0  0  0
    0.0000    0.0000    0.0000 O   0  0  0  0  0  0  0  0  0  0  0  0
    0.0000    0.0000    0.0000 C   0  0  0  0  0  0  0  0  0  0  0  0
    0.0000    0.0000    0.0000 C   0  0  0  0  0  0  0  0  0  0  0  0
    0.0000    0.0000    0.0000 C   0  0  0  0  0  0  0  0  0  0  0  0
    0.0000    0.0000    0.0000 C   0  0  0  0  0  0  0  0  0  0  0  0
    0.0000    0.0000    0.0000 C   0  0  0  0  0  0  0  0  0  0  0  0
    0.0000    0.0000    0.0000 C   0  0  0  0  0  0  0  0  0  0  0  0
    0.0000    0.0000    0.0000 O   0  0  0  0  0  0  0  0  0  0  0  0
    0.0000    0.0000    0.0000 C   0  0  0  0  0  0  0  0  0  0  0  0
    0.0000    0.0000    0.0000 C   0  0  0  0  0  0  0  0  0  0  0  0
    0.0000    0.0000    0.0000 C   0  0  0  0  0  0  0  0  0  0  0  0
  1  2  1  0
  2  3  1  0
  3  4  2  0
  4  5  1  0
  5  6  2  0
  6  7  1  0
  7  8  2  0
  8  9  1  0
  9 10  1  0
 10 11  1  0
 11 12  1  0
 12 13  1  0
 13 14  1  0
 14 15  1  0
 15 16  1  0
 16 17  2  0
 16 18  1  0
 18 19  2  0
 19 20  1  0
 20 21  2  0
 21 22  1  0
 22 23  2  0
 23 24  1  0
 24 25  1  0
 12 26  1  0
 26 27  1  0
  8  3  1  0
 27  9  1  0
 23 18  1  0
M  END
>  <pIC50>  (92) 
6.09

>  <ChEMBL_ID>  (92) 
CHEMBL356358

>  <document_journal>  (92) 
J. Med. Chem.

>  <bao_endpoint>  (92) 
BAO_0000190

>  <potential_duplicate>  (92) 
False

>  <uo_units>  (92) 
UO_0000065

>  <canonical_smiles>  (92) 
COc1ccccc1N2CCN(CCNC(=O)c3ccccc3OC)CC2

>  <parent_molecule_chembl_id>  (92) 
CHEMBL356358

>  <assay_type>  (92) 
B

>  <src_id>  (92) 
1

>  <ligand_efficiency>  (92) 
{u'le': u'0.31', u'bei': u'16.49', u'sei': u'11.27', u'lle': u'3.32'}

>  <standard_flag>  (92) 
True

>  <molecule_chembl_id>  (92) 
CHEMBL356358

>  <target_organism>  (92) 
Homo sapiens

>  <standard_units>  (92) 
nM

>  <record_id>  (92) 
283098

>  <document_chembl_id>  (92) 
CHEMBL1131412

>  <bao_format>  (92) 
BAO_0000357

>  <data_validity_description>  (92) 
None

>  <activity_id>  (92) 
1042628

>  <standard_type>  (92) 
IC50

>  <target_chembl_id>  (92) 
CHEMBL217

>  <data_validity_comment>  (92) 
None

>  <published_value>  (92) 
810

>  <document_year>  (92) 
1998

>  <target_pref_name>  (92) 
Dopamine D2 receptor

>  <assay_chembl_id>  (92) 
CHEMBL670113

>  <standard_relation>  (92) 
=

>  <assay_description>  (92) 
In vitro binding affinity at human cloned Dopamine receptor D2 by [3H]spiroperidol displacement.

>  <published_relation>  (92) 
=

>  <standard_value>  (92) 
810

>  <qudt_units>  (92) 
http://www.openphacts.org/units/Nanomolar

>  <target_tax_id>  (92) 
9606

>  <bao_label>  (92) 
single protein format

>  <published_units>  (92) 
nM

>  <pchembl_value>  (92) 
6.09

>  <published_type>  (92) 
IC50

>  <activity_comment>  (92) 
None

$$$$

     RDKit          

 29 32  0  0  0  0  0  0  0  0999 V2000
    0.0000    0.0000    0.0000 C   0  0  0  0  0  0  0  0  0  0  0  0
    0.0000    0.0000    0.0000 O   0  0  0  0  0  0  0  0  0  0  0  0
    0.0000    0.0000    0.0000 C   0  0  0  0  0  0  0  0  0  0  0  0
    0.0000    0.0000    0.0000 C   0  0  0  0  0  0  0  0  0  0  0  0
    0.0000    0.0000    0.0000 C   0  0  0  0  0  0  0  0  0  0  0  0
    0.0000    0.0000    0.0000 C   0  0  0  0  0  0  0  0  0  0  0  0
    0.0000    0.0000    0.0000 C   0  0  0  0  0  0  0  0  0  0  0  0
    0.0000    0.0000    0.0000 C   0  0  0  0  0  0  0  0  0  0  0  0
    0.0000    0.0000    0.0000 C   0  0  0  0  0  0  0  0  0  0  0  0
    0.0000    0.0000    0.0000 C   0  0  0  0  0  0  0  0  0  0  0  0
    0.0000    0.0000    0.0000 S   0  0  0  0  0  0  0  0  0  0  0  0
    0.0000    0.0000    0.0000 C   0  0  0  0  0  0  0  0  0  0  0  0
    0.0000    0.0000    0.0000 C   0  0  0  0  0  0  0  0  0  0  0  0
    0.0000    0.0000    0.0000 C   0  0  0  0  0  0  0  0  0  0  0  0
    0.0000    0.0000    0.0000 N   0  0  0  0  0  0  0  0  0  0  0  0
    0.0000    0.0000    0.0000 C   0  0  0  0  0  0  0  0  0  0  0  0
    0.0000    0.0000    0.0000 C   0  0  0  0  0  0  0  0  0  0  0  0
    0.0000    0.0000    0.0000 N   0  0  0  0  0  0  0  0  0  0  0  0
    0.0000    0.0000    0.0000 C   0  0  0  0  0  0  0  0  0  0  0  0
    0.0000    0.0000    0.0000 C   0  0  0  0  0  0  0  0  0  0  0  0
    0.0000    0.0000    0.0000 C   0  0  0  0  0  0  0  0  0  0  0  0
    0.0000    0.0000    0.0000 C   0  0  0  0  0  0  0  0  0  0  0  0
    0.0000    0.0000    0.0000 C   0  0  0  0  0  0  0  0  0  0  0  0
    0.0000    0.0000    0.0000 C   0  0  0  0  0  0  0  0  0  0  0  0
    0.0000    0.0000    0.0000 C   0  0  0  0  0  0  0  0  0  0  0  0
    0.0000    0.0000    0.0000 C   0  0  0  0  0  0  0  0  0  0  0  0
    0.0000    0.0000    0.0000 O   0  0  0  0  0  0  0  0  0  0  0  0
    0.0000    0.0000    0.0000 C   0  0  0  0  0  0  0  0  0  0  0  0
    0.0000    0.0000    0.0000 N   0  0  0  0  0  0  0  0  0  0  0  0
  1  2  1  0
  2  3  1  0
  3  4  2  0
  4  5  1  0
  5  6  2  0
  6  7  1  0
  7  8  2  0
  7  9  1  0
  9 10  2  0
 10 11  1  0
 11 12  1  0
 12 13  1  0
 13 14  1  0
 14 15  1  0
 15 16  1  0
 16 17  1  0
 17 18  1  0
 18 19  1  0
 19 20  1  0
 18 21  1  0
 21 22  2  0
 22 23  1  0
 23 24  2  0
 24 25  1  0
 25 26  2  0
 26 27  1  0
 27 28  1  0
 12 29  2  0
  8  3  1  0
 29  9  1  0
 20 15  1  0
 26 21  1  0
M  END
>  <pIC50>  (93) 
6.06

>  <ChEMBL_ID>  (93) 
CHEMBL2373205

>  <document_journal>  (93) 
J. Med. Chem.

>  <bao_endpoint>  (93) 
BAO_0000190

>  <potential_duplicate>  (93) 
False

>  <uo_units>  (93) 
UO_0000065

>  <canonical_smiles>  (93) 
Cl.COc1cccc(c1)c2csc(CCN3CCN(CC3)c4ccccc4OC)n2

>  <parent_molecule_chembl_id>  (93) 
CHEMBL144494

>  <assay_type>  (93) 
B

>  <src_id>  (93) 
1

>  <ligand_efficiency>  (93) 
{u'le': u'0.29', u'bei': u'14.8', u'sei': u'9.17', u'lle': u'1.72'}

>  <standard_flag>  (93) 
True

>  <molecule_chembl_id>  (93) 
CHEMBL2373205

>  <target_organism>  (93) 
Homo sapiens

>  <standard_units>  (93) 
nM

>  <record_id>  (93) 
283094

>  <document_chembl_id>  (93) 
CHEMBL1131412

>  <bao_format>  (93) 
BAO_0000357

>  <data_validity_description>  (93) 
None

>  <activity_id>  (93) 
1042630

>  <standard_type>  (93) 
IC50

>  <target_chembl_id>  (93) 
CHEMBL217

>  <data_validity_comment>  (93) 
None

>  <published_value>  (93) 
870

>  <document_year>  (93) 
1998

>  <target_pref_name>  (93) 
Dopamine D2 receptor

>  <assay_chembl_id>  (93) 
CHEMBL670113

>  <standard_relation>  (93) 
=

>  <assay_description>  (93) 
In vitro binding affinity at human cloned Dopamine receptor D2 by [3H]spiroperidol displacement.

>  <published_relation>  (93) 
=

>  <standard_value>  (93) 
870

>  <qudt_units>  (93) 
http://www.openphacts.org/units/Nanomolar

>  <target_tax_id>  (93) 
9606

>  <bao_label>  (93) 
single protein format

>  <published_units>  (93) 
nM

>  <pchembl_value>  (93) 
6.06

>  <published_type>  (93) 
IC50

>  <activity_comment>  (93) 
None

$$$$

     RDKit          

 29 31  0  0  0  0  0  0  0  0999 V2000
    0.0000    0.0000    0.0000 C   0  0  0  0  0  0  0  0  0  0  0  0
    0.0000    0.0000    0.0000 O   0  0  0  0  0  0  0  0  0  0  0  0
    0.0000    0.0000    0.0000 C   0  0  0  0  0  0  0  0  0  0  0  0
    0.0000    0.0000    0.0000 C   0  0  0  0  0  0  0  0  0  0  0  0
    0.0000    0.0000    0.0000 C   0  0  0  0  0  0  0  0  0  0  0  0
    0.0000    0.0000    0.0000 C   0  0  0  0  0  0  0  0  0  0  0  0
    0.0000    0.0000    0.0000 O   0  0  0  0  0  0  0  0  0  0  0  0
    0.0000    0.0000    0.0000 C   0  0  0  0  0  0  0  0  0  0  0  0
    0.0000    0.0000    0.0000 C   0  0  0  0  0  0  0  0  0  0  0  0
    0.0000    0.0000    0.0000 C   0  0  0  0  0  0  0  0  0  0  0  0
    0.0000    0.0000    0.0000 C   0  0  0  0  0  0  0  0  0  0  0  0
    0.0000    0.0000    0.0000 O   0  0  0  0  0  0  0  0  0  0  0  0
    0.0000    0.0000    0.0000 N   0  0  0  0  0  0  0  0  0  0  0  0
    0.0000    0.0000    0.0000 C   0  0  0  0  0  0  0  0  0  0  0  0
    0.0000    0.0000    0.0000 C   0  0  0  0  0  0  0  0  0  0  0  0
    0.0000    0.0000    0.0000 N   0  0  0  0  0  0  0  0  0  0  0  0
    0.0000    0.0000    0.0000 C   0  0  0  0  0  0  0  0  0  0  0  0
    0.0000    0.0000    0.0000 C   0  0  0  0  0  0  0  0  0  0  0  0
    0.0000    0.0000    0.0000 N   0  0  0  0  0  0  0  0  0  0  0  0
    0.0000    0.0000    0.0000 C   0  0  0  0  0  0  0  0  0  0  0  0
    0.0000    0.0000    0.0000 C   0  0  0  0  0  0  0  0  0  0  0  0
    0.0000    0.0000    0.0000 C   0  0  0  0  0  0  0  0  0  0  0  0
    0.0000    0.0000    0.0000 C   0  0  0  0  0  0  0  0  0  0  0  0
    0.0000    0.0000    0.0000 C   0  0  0  0  0  0  0  0  0  0  0  0
    0.0000    0.0000    0.0000 C   0  0  0  0  0  0  0  0  0  0  0  0
    0.0000    0.0000    0.0000 C   0  0  0  0  0  0  0  0  0  0  0  0
    0.0000    0.0000    0.0000 C   0  0  0  0  0  0  0  0  0  0  0  0
    0.0000    0.0000    0.0000 O   0  0  0  0  0  0  0  0  0  0  0  0
    0.0000    0.0000    0.0000 C   0  0  0  0  0  0  0  0  0  0  0  0
  1  2  1  0
  2  3  1  0
  3  4  2  0
  4  5  1  0
  5  6  2  0
  6  7  1  0
  7  8  1  0
  6  9  1  0
  9 10  2  0
  9 11  1  0
 11 12  2  0
 11 13  1  0
 13 14  1  0
 14 15  1  0
 15 16  1  0
 16 17  1  0
 17 18  1  0
 18 19  1  0
 19 20  1  0
 20 21  1  0
 19 22  1  0
 22 23  2  0
 23 24  1  0
 24 25  2  0
 25 26  1  0
 26 27  2  0
 27 28  1  0
 28 29  1  0
 10  3  1  0
 21 16  1  0
 27 22  1  0
M  END
>  <pIC50>  (94) 
6.6

>  <ChEMBL_ID>  (94) 
CHEMBL144811

>  <document_journal>  (94) 
J. Med. Chem.

>  <bao_endpoint>  (94) 
BAO_0000190

>  <potential_duplicate>  (94) 
False

>  <uo_units>  (94) 
UO_0000065

>  <canonical_smiles>  (94) 
COc1ccc(OC)c(c1)C(=O)NCCN2CCN(CC2)c3ccccc3OC

>  <parent_molecule_chembl_id>  (94) 
CHEMBL144811

>  <assay_type>  (94) 
B

>  <src_id>  (94) 
1

>  <ligand_efficiency>  (94) 
{u'le': u'0.31', u'bei': u'16.53', u'sei': u'10.43', u'lle': u'3.84'}

>  <standard_flag>  (94) 
True

>  <molecule_chembl_id>  (94) 
CHEMBL144811

>  <target_organism>  (94) 
Homo sapiens

>  <standard_units>  (94) 
nM

>  <record_id>  (94) 
283085

>  <document_chembl_id>  (94) 
CHEMBL1131412

>  <bao_format>  (94) 
BAO_0000357

>  <data_validity_description>  (94) 
None

>  <activity_id>  (94) 
1044111

>  <standard_type>  (94) 
IC50

>  <target_chembl_id>  (94) 
CHEMBL217

>  <data_validity_comment>  (94) 
None

>  <published_value>  (94) 
250

>  <document_year>  (94) 
1998

>  <target_pref_name>  (94) 
Dopamine D2 receptor

>  <assay_chembl_id>  (94) 
CHEMBL670113

>  <standard_relation>  (94) 
=

>  <assay_description>  (94) 
In vitro binding affinity at human cloned Dopamine receptor D2 by [3H]spiroperidol displacement.

>  <published_relation>  (94) 
=

>  <standard_value>  (94) 
250

>  <qudt_units>  (94) 
http://www.openphacts.org/units/Nanomolar

>  <target_tax_id>  (94) 
9606

>  <bao_label>  (94) 
single protein format

>  <published_units>  (94) 
nM

>  <pchembl_value>  (94) 
6.6

>  <published_type>  (94) 
IC50

>  <activity_comment>  (94) 
None

$$$$

     RDKit          

 29 32  0  0  0  0  0  0  0  0999 V2000
    0.0000    0.0000    0.0000 C   0  0  0  0  0  0  0  0  0  0  0  0
    0.0000    0.0000    0.0000 O   0  0  0  0  0  0  0  0  0  0  0  0
    0.0000    0.0000    0.0000 C   0  0  0  0  0  0  0  0  0  0  0  0
    0.0000    0.0000    0.0000 C   0  0  0  0  0  0  0  0  0  0  0  0
    0.0000    0.0000    0.0000 C   0  0  0  0  0  0  0  0  0  0  0  0
    0.0000    0.0000    0.0000 C   0  0  0  0  0  0  0  0  0  0  0  0
    0.0000    0.0000    0.0000 C   0  0  0  0  0  0  0  0  0  0  0  0
    0.0000    0.0000    0.0000 C   0  0  0  0  0  0  0  0  0  0  0  0
    0.0000    0.0000    0.0000 C   0  0  0  0  0  0  0  0  0  0  0  0
    0.0000    0.0000    0.0000 C   0  0  0  0  0  0  0  0  0  0  0  0
    0.0000    0.0000    0.0000 C   0  0  0  0  0  0  0  0  0  0  0  0
    0.0000    0.0000    0.0000 N   0  0  0  0  0  0  0  0  0  0  0  0
    0.0000    0.0000    0.0000 C   0  0  0  0  0  0  0  0  0  0  0  0
    0.0000    0.0000    0.0000 C   0  0  0  0  0  0  0  0  0  0  0  0
    0.0000    0.0000    0.0000 N   0  0  0  0  0  0  0  0  0  0  0  0
    0.0000    0.0000    0.0000 C   0  0  0  0  0  0  0  0  0  0  0  0
    0.0000    0.0000    0.0000 C   0  0  0  0  0  0  0  0  0  0  0  0
    0.0000    0.0000    0.0000 C   0  0  0  0  0  0  0  0  0  0  0  0
    0.0000    0.0000    0.0000 C   0  0  0  0  0  0  0  0  0  0  0  0
    0.0000    0.0000    0.0000 C   0  0  0  0  0  0  0  0  0  0  0  0
    0.0000    0.0000    0.0000 C   0  0  0  0  0  0  0  0  0  0  0  0
    0.0000    0.0000    0.0000 C   0  0  0  0  0  0  0  0  0  0  0  0
    0.0000    0.0000    0.0000 C   0  0  0  0  0  0  0  0  0  0  0  0
    0.0000    0.0000    0.0000 O   0  0  0  0  0  0  0  0  0  0  0  0
    0.0000    0.0000    0.0000 C   0  0  0  0  0  0  0  0  0  0  0  0
    0.0000    0.0000    0.0000 C   0  0  0  0  0  0  0  0  0  0  0  0
    0.0000    0.0000    0.0000 C   0  0  0  0  0  0  0  0  0  0  0  0
    0.0000    0.0000    0.0000 C   0  0  0  0  0  0  0  0  0  0  0  0
    0.0000    0.0000    0.0000 C   0  0  0  0  0  0  0  0  0  0  0  0
  1  2  1  0
  2  3  1  0
  3  4  2  0
  4  5  1  0
  5  6  2  0
  6  7  1  0
  7  8  1  0
  8  9  1  0
  9 10  1  0
 10 11  1  0
 11 12  1  0
 12 13  1  0
 13 14  1  0
 14 15  1  0
 15 16  1  0
 16 17  1  0
 15 18  1  0
 18 19  2  0
 19 20  1  0
 20 21  2  0
 21 22  1  0
 22 23  2  0
 23 24  1  0
 24 25  1  0
  8 26  1  0
 26 27  1  0
 27 28  1  0
 28 29  1  0
 29  3  1  0
 29  7  2  0
 17 12  1  0
 23 18  1  0
M  END
>  <pIC50>  (95) 
7.7

>  <ChEMBL_ID>  (95) 
CHEMBL26929

>  <document_journal>  (95) 
J. Med. Chem.

>  <bao_endpoint>  (95) 
BAO_0000190

>  <potential_duplicate>  (95) 
False

>  <uo_units>  (95) 
UO_0000065

>  <canonical_smiles>  (95) 
COc1cccc2C(CCCN3CCN(CC3)c4ccccc4OC)CCCc12

>  <parent_molecule_chembl_id>  (95) 
CHEMBL26929

>  <assay_type>  (95) 
B

>  <src_id>  (95) 
1

>  <ligand_efficiency>  (95) 
{u'le': u'0.36', u'bei': u'19.51', u'sei': u'30.87', u'lle': u'2.14'}

>  <standard_flag>  (95) 
True

>  <molecule_chembl_id>  (95) 
CHEMBL26929

>  <target_organism>  (95) 
Homo sapiens

>  <standard_units>  (95) 
nM

>  <record_id>  (95) 
283093

>  <document_chembl_id>  (95) 
CHEMBL1131412

>  <bao_format>  (95) 
BAO_0000357

>  <data_validity_description>  (95) 
None

>  <activity_id>  (95) 
1050214

>  <standard_type>  (95) 
IC50

>  <target_chembl_id>  (95) 
CHEMBL217

>  <data_validity_comment>  (95) 
None

>  <published_value>  (95) 
20

>  <document_year>  (95) 
1998

>  <target_pref_name>  (95) 
Dopamine D2 receptor

>  <assay_chembl_id>  (95) 
CHEMBL670113

>  <standard_relation>  (95) 
=

>  <assay_description>  (95) 
In vitro binding affinity at human cloned Dopamine receptor D2 by [3H]spiroperidol displacement.

>  <published_relation>  (95) 
=

>  <standard_value>  (95) 
20

>  <qudt_units>  (95) 
http://www.openphacts.org/units/Nanomolar

>  <target_tax_id>  (95) 
9606

>  <bao_label>  (95) 
single protein format

>  <published_units>  (95) 
nM

>  <pchembl_value>  (95) 
7.7

>  <published_type>  (95) 
IC50

>  <activity_comment>  (95) 
None

$$$$

     RDKit          

 29 32  0  0  0  0  0  0  0  0999 V2000
    0.0000    0.0000    0.0000 C   0  0  0  0  0  0  0  0  0  0  0  0
    0.0000    0.0000    0.0000 O   0  0  0  0  0  0  0  0  0  0  0  0
    0.0000    0.0000    0.0000 C   0  0  0  0  0  0  0  0  0  0  0  0
    0.0000    0.0000    0.0000 C   0  0  0  0  0  0  0  0  0  0  0  0
    0.0000    0.0000    0.0000 C   0  0  0  0  0  0  0  0  0  0  0  0
    0.0000    0.0000    0.0000 C   0  0  0  0  0  0  0  0  0  0  0  0
    0.0000    0.0000    0.0000 C   0  0  0  0  0  0  0  0  0  0  0  0
    0.0000    0.0000    0.0000 C   0  0  0  0  0  0  0  0  0  0  0  0
    0.0000    0.0000    0.0000 C   0  0  0  0  0  0  0  0  0  0  0  0
    0.0000    0.0000    0.0000 C   0  0  0  0  0  0  0  0  0  0  0  0
    0.0000    0.0000    0.0000 C   0  0  0  0  0  0  0  0  0  0  0  0
    0.0000    0.0000    0.0000 C   0  0  0  0  0  0  0  0  0  0  0  0
    0.0000    0.0000    0.0000 C   0  0  0  0  0  0  0  0  0  0  0  0
    0.0000    0.0000    0.0000 N   0  0  0  0  0  0  0  0  0  0  0  0
    0.0000    0.0000    0.0000 C   0  0  0  0  0  0  0  0  0  0  0  0
    0.0000    0.0000    0.0000 C   0  0  0  0  0  0  0  0  0  0  0  0
    0.0000    0.0000    0.0000 N   0  0  0  0  0  0  0  0  0  0  0  0
    0.0000    0.0000    0.0000 C   0  0  0  0  0  0  0  0  0  0  0  0
    0.0000    0.0000    0.0000 C   0  0  0  0  0  0  0  0  0  0  0  0
    0.0000    0.0000    0.0000 C   0  0  0  0  0  0  0  0  0  0  0  0
    0.0000    0.0000    0.0000 C   0  0  0  0  0  0  0  0  0  0  0  0
    0.0000    0.0000    0.0000 C   0  0  0  0  0  0  0  0  0  0  0  0
    0.0000    0.0000    0.0000 C   0  0  0  0  0  0  0  0  0  0  0  0
    0.0000    0.0000    0.0000 C   0  0  0  0  0  0  0  0  0  0  0  0
    0.0000    0.0000    0.0000 C   0  0  0  0  0  0  0  0  0  0  0  0
    0.0000    0.0000    0.0000 O   0  0  0  0  0  0  0  0  0  0  0  0
    0.0000    0.0000    0.0000 C   0  0  0  0  0  0  0  0  0  0  0  0
    0.0000    0.0000    0.0000 C   0  0  0  0  0  0  0  0  0  0  0  0
    0.0000    0.0000    0.0000 C   0  0  0  0  0  0  0  0  0  0  0  0
  1  2  1  0
  2  3  1  0
  3  4  2  0
  4  5  1  0
  5  6  2  0
  6  7  1  0
  7  8  1  0
  8  9  1  0
  9 10  1  0
 10 11  1  0
 11 12  1  0
 12 13  1  0
 13 14  1  0
 14 15  1  0
 15 16  1  0
 16 17  1  0
 17 18  1  0
 18 19  1  0
 17 20  1  0
 20 21  2  0
 21 22  1  0
 22 23  2  0
 23 24  1  0
 24 25  2  0
 25 26  1  0
 26 27  1  0
 10 28  1  0
 28 29  2  0
 29  3  1  0
 28  6  1  0
 19 14  1  0
 25 20  1  0
M  END
>  <pIC50>  (96) 
6.82

>  <ChEMBL_ID>  (96) 
CHEMBL424125

>  <document_journal>  (96) 
J. Med. Chem.

>  <bao_endpoint>  (96) 
BAO_0000190

>  <potential_duplicate>  (96) 
False

>  <uo_units>  (96) 
UO_0000065

>  <canonical_smiles>  (96) 
COc1ccc2CCCC(CCCN3CCN(CC3)c4ccccc4OC)c2c1

>  <parent_molecule_chembl_id>  (96) 
CHEMBL424125

>  <assay_type>  (96) 
B

>  <src_id>  (96) 
1

>  <ligand_efficiency>  (96) 
{u'le': u'0.32', u'bei': u'17.3', u'sei': u'27.36', u'lle': u'1.26'}

>  <standard_flag>  (96) 
True

>  <molecule_chembl_id>  (96) 
CHEMBL424125

>  <target_organism>  (96) 
Homo sapiens

>  <standard_units>  (96) 
nM

>  <record_id>  (96) 
283092

>  <document_chembl_id>  (96) 
CHEMBL1131412

>  <bao_format>  (96) 
BAO_0000357

>  <data_validity_description>  (96) 
None

>  <activity_id>  (96) 
1052610

>  <standard_type>  (96) 
IC50

>  <target_chembl_id>  (96) 
CHEMBL217

>  <data_validity_comment>  (96) 
None

>  <published_value>  (96) 
150

>  <document_year>  (96) 
1998

>  <target_pref_name>  (96) 
Dopamine D2 receptor

>  <assay_chembl_id>  (96) 
CHEMBL670113

>  <standard_relation>  (96) 
=

>  <assay_description>  (96) 
In vitro binding affinity at human cloned Dopamine receptor D2 by [3H]spiroperidol displacement.

>  <published_relation>  (96) 
=

>  <standard_value>  (96) 
150

>  <qudt_units>  (96) 
http://www.openphacts.org/units/Nanomolar

>  <target_tax_id>  (96) 
9606

>  <bao_label>  (96) 
single protein format

>  <published_units>  (96) 
nM

>  <pchembl_value>  (96) 
6.82

>  <published_type>  (96) 
IC50

>  <activity_comment>  (96) 
None

$$$$

     RDKit          

 31 34  0  0  0  0  0  0  0  0999 V2000
    0.0000    0.0000    0.0000 C   0  0  0  0  0  0  0  0  0  0  0  0
    0.0000    0.0000    0.0000 O   0  0  0  0  0  0  0  0  0  0  0  0
    0.0000    0.0000    0.0000 C   0  0  0  0  0  0  0  0  0  0  0  0
    0.0000    0.0000    0.0000 C   0  0  0  0  0  0  0  0  0  0  0  0
    0.0000    0.0000    0.0000 C   0  0  0  0  0  0  0  0  0  0  0  0
    0.0000    0.0000    0.0000 C   0  0  0  0  0  0  0  0  0  0  0  0
    0.0000    0.0000    0.0000 C   0  0  0  0  0  0  0  0  0  0  0  0
    0.0000    0.0000    0.0000 C   0  0  0  0  0  0  0  0  0  0  0  0
    0.0000    0.0000    0.0000 C   0  0  0  0  0  0  0  0  0  0  0  0
    0.0000    0.0000    0.0000 C   0  0  0  0  0  0  0  0  0  0  0  0
    0.0000    0.0000    0.0000 C   0  0  0  0  0  0  0  0  0  0  0  0
    0.0000    0.0000    0.0000 C   0  0  0  0  0  0  0  0  0  0  0  0
    0.0000    0.0000    0.0000 N   0  0  0  0  0  0  0  0  0  0  0  0
    0.0000    0.0000    0.0000 C   0  0  0  0  0  0  0  0  0  0  0  0
    0.0000    0.0000    0.0000 O   0  0  0  0  0  0  0  0  0  0  0  0
    0.0000    0.0000    0.0000 C   0  0  0  0  0  0  0  0  0  0  0  0
    0.0000    0.0000    0.0000 C   0  0  0  0  0  0  0  0  0  0  0  0
    0.0000    0.0000    0.0000 N   0  0  0  0  0  0  0  0  0  0  0  0
    0.0000    0.0000    0.0000 C   0  0  0  0  0  0  0  0  0  0  0  0
    0.0000    0.0000    0.0000 C   0  0  0  0  0  0  0  0  0  0  0  0
    0.0000    0.0000    0.0000 N   0  0  0  0  0  0  0  0  0  0  0  0
    0.0000    0.0000    0.0000 C   0  0  0  0  0  0  0  0  0  0  0  0
    0.0000    0.0000    0.0000 C   0  0  0  0  0  0  0  0  0  0  0  0
    0.0000    0.0000    0.0000 C   0  0  0  0  0  0  0  0  0  0  0  0
    0.0000    0.0000    0.0000 C   0  0  0  0  0  0  0  0  0  0  0  0
    0.0000    0.0000    0.0000 C   0  0  0  0  0  0  0  0  0  0  0  0
    0.0000    0.0000    0.0000 C   0  0  0  0  0  0  0  0  0  0  0  0
    0.0000    0.0000    0.0000 C   0  0  0  0  0  0  0  0  0  0  0  0
    0.0000    0.0000    0.0000 C   0  0  0  0  0  0  0  0  0  0  0  0
    0.0000    0.0000    0.0000 O   0  0  0  0  0  0  0  0  0  0  0  0
    0.0000    0.0000    0.0000 C   0  0  0  0  0  0  0  0  0  0  0  0
  1  2  1  0
  2  3  1  0
  3  4  2  0
  4  5  1  0
  5  6  2  0
  6  7  1  0
  7  8  1  0
  8  9  1  0
  9 10  1  0
 10 11  1  0
 11 12  2  0
  9 13  1  0
 13 14  1  0
 14 15  2  0
 14 16  1  0
 16 17  1  0
 17 18  1  0
 18 19  1  0
 19 20  1  0
 20 21  1  0
 21 22  1  0
 22 23  1  0
 21 24  1  0
 24 25  2  0
 25 26  1  0
 26 27  2  0
 27 28  1  0
 28 29  2  0
 29 30  1  0
 30 31  1  0
 12  3  1  0
 11  6  1  0
 23 18  1  0
 29 24  1  0
M  END
>  <pIC50>  (97) 
6.19

>  <ChEMBL_ID>  (97) 
CHEMBL2373210

>  <document_journal>  (97) 
J. Med. Chem.

>  <bao_endpoint>  (97) 
BAO_0000190

>  <potential_duplicate>  (97) 
False

>  <uo_units>  (97) 
UO_0000065

>  <canonical_smiles>  (97) 
Cl.Cl.COc1ccc2CCC(Cc2c1)NC(=O)CCN3CCN(CC3)c4ccccc4OC

>  <parent_molecule_chembl_id>  (97) 
CHEMBL147897

>  <assay_type>  (97) 
B

>  <src_id>  (97) 
1

>  <ligand_efficiency>  (97) 
{u'le': u'0.27', u'bei': u'14.61', u'sei': u'11.45', u'lle': u'2.5'}

>  <standard_flag>  (97) 
True

>  <molecule_chembl_id>  (97) 
CHEMBL2373210

>  <target_organism>  (97) 
Homo sapiens

>  <standard_units>  (97) 
nM

>  <record_id>  (97) 
283090

>  <document_chembl_id>  (97) 
CHEMBL1131412

>  <bao_format>  (97) 
BAO_0000357

>  <data_validity_description>  (97) 
None

>  <activity_id>  (97) 
1055092

>  <standard_type>  (97) 
IC50

>  <target_chembl_id>  (97) 
CHEMBL217

>  <data_validity_comment>  (97) 
None

>  <published_value>  (97) 
650

>  <document_year>  (97) 
1998

>  <target_pref_name>  (97) 
Dopamine D2 receptor

>  <assay_chembl_id>  (97) 
CHEMBL670113

>  <standard_relation>  (97) 
=

>  <assay_description>  (97) 
In vitro binding affinity at human cloned Dopamine receptor D2 by [3H]spiroperidol displacement.

>  <published_relation>  (97) 
=

>  <standard_value>  (97) 
650

>  <qudt_units>  (97) 
http://www.openphacts.org/units/Nanomolar

>  <target_tax_id>  (97) 
9606

>  <bao_label>  (97) 
single protein format

>  <published_units>  (97) 
nM

>  <pchembl_value>  (97) 
6.19

>  <published_type>  (97) 
IC50

>  <activity_comment>  (97) 
None

$$$$

     RDKit          

 27 29  0  0  0  0  0  0  0  0999 V2000
    0.0000    0.0000    0.0000 C   0  0  0  0  0  0  0  0  0  0  0  0
    0.0000    0.0000    0.0000 O   0  0  0  0  0  0  0  0  0  0  0  0
    0.0000    0.0000    0.0000 C   0  0  0  0  0  0  0  0  0  0  0  0
    0.0000    0.0000    0.0000 C   0  0  0  0  0  0  0  0  0  0  0  0
    0.0000    0.0000    0.0000 C   0  0  0  0  0  0  0  0  0  0  0  0
    0.0000    0.0000    0.0000 C   0  0  0  0  0  0  0  0  0  0  0  0
    0.0000    0.0000    0.0000 C   0  0  0  0  0  0  0  0  0  0  0  0
    0.0000    0.0000    0.0000 C   0  0  0  0  0  0  0  0  0  0  0  0
    0.0000    0.0000    0.0000 C   0  0  0  0  0  0  0  0  0  0  0  0
    0.0000    0.0000    0.0000 O   0  0  0  0  0  0  0  0  0  0  0  0
    0.0000    0.0000    0.0000 N   0  0  0  0  0  0  0  0  0  0  0  0
    0.0000    0.0000    0.0000 C   0  0  0  0  0  0  0  0  0  0  0  0
    0.0000    0.0000    0.0000 C   0  0  0  0  0  0  0  0  0  0  0  0
    0.0000    0.0000    0.0000 N   0  0  0  0  0  0  0  0  0  0  0  0
    0.0000    0.0000    0.0000 C   0  0  0  0  0  0  0  0  0  0  0  0
    0.0000    0.0000    0.0000 C   0  0  0  0  0  0  0  0  0  0  0  0
    0.0000    0.0000    0.0000 N   0  0  0  0  0  0  0  0  0  0  0  0
    0.0000    0.0000    0.0000 C   0  0  0  0  0  0  0  0  0  0  0  0
    0.0000    0.0000    0.0000 C   0  0  0  0  0  0  0  0  0  0  0  0
    0.0000    0.0000    0.0000 C   0  0  0  0  0  0  0  0  0  0  0  0
    0.0000    0.0000    0.0000 C   0  0  0  0  0  0  0  0  0  0  0  0
    0.0000    0.0000    0.0000 C   0  0  0  0  0  0  0  0  0  0  0  0
    0.0000    0.0000    0.0000 C   0  0  0  0  0  0  0  0  0  0  0  0
    0.0000    0.0000    0.0000 C   0  0  0  0  0  0  0  0  0  0  0  0
    0.0000    0.0000    0.0000 C   0  0  0  0  0  0  0  0  0  0  0  0
    0.0000    0.0000    0.0000 O   0  0  0  0  0  0  0  0  0  0  0  0
    0.0000    0.0000    0.0000 C   0  0  0  0  0  0  0  0  0  0  0  0
  1  2  1  0
  2  3  1  0
  3  4  2  0
  4  5  1  0
  5  6  2  0
  6  7  1  0
  7  8  2  0
  7  9  1  0
  9 10  2  0
  9 11  1  0
 11 12  1  0
 12 13  1  0
 13 14  1  0
 14 15  1  0
 15 16  1  0
 16 17  1  0
 17 18  1  0
 18 19  1  0
 17 20  1  0
 20 21  2  0
 21 22  1  0
 22 23  2  0
 23 24  1  0
 24 25  2  0
 25 26  1  0
 26 27  1  0
  8  3  1  0
 19 14  1  0
 25 20  1  0
M  END
>  <pIC50>  (98) 
6.16

>  <ChEMBL_ID>  (98) 
CHEMBL286725

>  <document_journal>  (98) 
J. Med. Chem.

>  <bao_endpoint>  (98) 
BAO_0000190

>  <potential_duplicate>  (98) 
False

>  <uo_units>  (98) 
UO_0000065

>  <canonical_smiles>  (98) 
COc1cccc(c1)C(=O)NCCN2CCN(CC2)c3ccccc3OC

>  <parent_molecule_chembl_id>  (98) 
CHEMBL286725

>  <assay_type>  (98) 
B

>  <src_id>  (98) 
1

>  <ligand_efficiency>  (98) 
{u'le': u'0.31', u'bei': u'16.66', u'sei': u'11.39', u'lle': u'3.38'}

>  <standard_flag>  (98) 
True

>  <molecule_chembl_id>  (98) 
CHEMBL286725

>  <target_organism>  (98) 
Homo sapiens

>  <standard_units>  (98) 
nM

>  <record_id>  (98) 
283105

>  <document_chembl_id>  (98) 
CHEMBL1131412

>  <bao_format>  (98) 
BAO_0000357

>  <data_validity_description>  (98) 
None

>  <activity_id>  (98) 
1060036

>  <standard_type>  (98) 
IC50

>  <target_chembl_id>  (98) 
CHEMBL217

>  <data_validity_comment>  (98) 
None

>  <published_value>  (98) 
700

>  <document_year>  (98) 
1998

>  <target_pref_name>  (98) 
Dopamine D2 receptor

>  <assay_chembl_id>  (98) 
CHEMBL670113

>  <standard_relation>  (98) 
=

>  <assay_description>  (98) 
In vitro binding affinity at human cloned Dopamine receptor D2 by [3H]spiroperidol displacement.

>  <published_relation>  (98) 
=

>  <standard_value>  (98) 
700

>  <qudt_units>  (98) 
http://www.openphacts.org/units/Nanomolar

>  <target_tax_id>  (98) 
9606

>  <bao_label>  (98) 
single protein format

>  <published_units>  (98) 
nM

>  <pchembl_value>  (98) 
6.16

>  <published_type>  (98) 
IC50

>  <activity_comment>  (98) 
None

$$$$

     RDKit          

 27 29  0  0  0  0  0  0  0  0999 V2000
    0.0000    0.0000    0.0000 C   0  0  0  0  0  0  0  0  0  0  0  0
    0.0000    0.0000    0.0000 O   0  0  0  0  0  0  0  0  0  0  0  0
    0.0000    0.0000    0.0000 C   0  0  0  0  0  0  0  0  0  0  0  0
    0.0000    0.0000    0.0000 C   0  0  0  0  0  0  0  0  0  0  0  0
    0.0000    0.0000    0.0000 C   0  0  0  0  0  0  0  0  0  0  0  0
    0.0000    0.0000    0.0000 C   0  0  0  0  0  0  0  0  0  0  0  0
    0.0000    0.0000    0.0000 C   0  0  0  0  0  0  0  0  0  0  0  0
    0.0000    0.0000    0.0000 C   0  0  0  0  0  0  0  0  0  0  0  0
    0.0000    0.0000    0.0000 C   0  0  0  0  0  0  0  0  0  0  0  0
    0.0000    0.0000    0.0000 O   0  0  0  0  0  0  0  0  0  0  0  0
    0.0000    0.0000    0.0000 C   0  0  0  0  0  0  0  0  0  0  0  0
    0.0000    0.0000    0.0000 C   0  0  0  0  0  0  0  0  0  0  0  0
    0.0000    0.0000    0.0000 C   0  0  0  0  0  0  0  0  0  0  0  0
    0.0000    0.0000    0.0000 N   0  0  0  0  0  0  0  0  0  0  0  0
    0.0000    0.0000    0.0000 C   0  0  0  0  0  0  0  0  0  0  0  0
    0.0000    0.0000    0.0000 C   0  0  0  0  0  0  0  0  0  0  0  0
    0.0000    0.0000    0.0000 N   0  0  0  0  0  0  0  0  0  0  0  0
    0.0000    0.0000    0.0000 C   0  0  0  0  0  0  0  0  0  0  0  0
    0.0000    0.0000    0.0000 C   0  0  0  0  0  0  0  0  0  0  0  0
    0.0000    0.0000    0.0000 C   0  0  0  0  0  0  0  0  0  0  0  0
    0.0000    0.0000    0.0000 C   0  0  0  0  0  0  0  0  0  0  0  0
    0.0000    0.0000    0.0000 C   0  0  0  0  0  0  0  0  0  0  0  0
    0.0000    0.0000    0.0000 C   0  0  0  0  0  0  0  0  0  0  0  0
    0.0000    0.0000    0.0000 C   0  0  0  0  0  0  0  0  0  0  0  0
    0.0000    0.0000    0.0000 C   0  0  0  0  0  0  0  0  0  0  0  0
    0.0000    0.0000    0.0000 O   0  0  0  0  0  0  0  0  0  0  0  0
    0.0000    0.0000    0.0000 C   0  0  0  0  0  0  0  0  0  0  0  0
  1  2  1  0
  2  3  1  0
  3  4  2  0
  4  5  1  0
  5  6  2  0
  6  7  1  0
  7  8  2  0
  7  9  1  0
  9 10  2  0
  9 11  1  0
 11 12  1  0
 12 13  1  0
 13 14  1  0
 14 15  1  0
 15 16  1  0
 16 17  1  0
 17 18  1  0
 18 19  1  0
 17 20  1  0
 20 21  2  0
 21 22  1  0
 22 23  2  0
 23 24  1  0
 24 25  2  0
 25 26  1  0
 26 27  1  0
  8  3  1  0
 19 14  1  0
 25 20  1  0
M  END
>  <pIC50>  (99) 
7.89

>  <ChEMBL_ID>  (99) 
CHEMBL26677

>  <document_journal>  (99) 
J. Med. Chem.

>  <bao_endpoint>  (99) 
BAO_0000190

>  <potential_duplicate>  (99) 
False

>  <uo_units>  (99) 
UO_0000065

>  <canonical_smiles>  (99) 
COc1cccc(c1)C(=O)CCCN2CCN(CC2)c3ccccc3OC

>  <parent_molecule_chembl_id>  (99) 
CHEMBL26677

>  <assay_type>  (99) 
B

>  <src_id>  (99) 
1

>  <ligand_efficiency>  (99) 
{u'le': u'0.4', u'bei': u'21.4', u'sei': u'18.77', u'lle': u'4.15'}

>  <standard_flag>  (99) 
True

>  <molecule_chembl_id>  (99) 
CHEMBL26677

>  <target_organism>  (99) 
Homo sapiens

>  <standard_units>  (99) 
nM

>  <record_id>  (99) 
283102

>  <document_chembl_id>  (99) 
CHEMBL1131412

>  <bao_format>  (99) 
BAO_0000357

>  <data_validity_description>  (99) 
None

>  <activity_id>  (99) 
1062791

>  <standard_type>  (99) 
IC50

>  <target_chembl_id>  (99) 
CHEMBL217

>  <data_validity_comment>  (99) 
None

>  <published_value>  (99) 
13

>  <document_year>  (99) 
1998

>  <target_pref_name>  (99) 
Dopamine D2 receptor

>  <assay_chembl_id>  (99) 
CHEMBL670113

>  <standard_relation>  (99) 
=

>  <assay_description>  (99) 
In vitro binding affinity at human cloned Dopamine receptor D2 by [3H]spiroperidol displacement.

>  <published_relation>  (99) 
=

>  <standard_value>  (99) 
13

>  <qudt_units>  (99) 
http://www.openphacts.org/units/Nanomolar

>  <target_tax_id>  (99) 
9606

>  <bao_label>  (99) 
single protein format

>  <published_units>  (99) 
nM

>  <pchembl_value>  (99) 
7.89

>  <published_type>  (99) 
IC50

>  <activity_comment>  (99) 
None

$$$$

     RDKit          

 25 28  0  0  0  0  0  0  0  0999 V2000
    0.0000    0.0000    0.0000 C   0  0  0  0  0  0  0  0  0  0  0  0
    0.0000    0.0000    0.0000 C   0  0  0  0  0  0  0  0  0  0  0  0
    0.0000    0.0000    0.0000 C   0  0  0  0  0  0  0  0  0  0  0  0
    0.0000    0.0000    0.0000 N   0  0  0  0  0  0  0  0  0  0  0  0
    0.0000    0.0000    0.0000 C   0  0  0  0  0  0  0  0  0  0  0  0
    0.0000    0.0000    0.0000 C   0  0  0  0  0  0  0  0  0  0  0  0
    0.0000    0.0000    0.0000 C   0  0  0  0  0  0  0  0  0  0  0  0
    0.0000    0.0000    0.0000 C   0  0  0  0  0  0  0  0  0  0  0  0
    0.0000    0.0000    0.0000 O   0  0  0  0  0  0  0  0  0  0  0  0
    0.0000    0.0000    0.0000 C   0  0  0  0  0  0  0  0  0  0  0  0
    0.0000    0.0000    0.0000 N   0  0  0  0  0  0  0  0  0  0  0  0
    0.0000    0.0000    0.0000 C   0  0  0  0  0  0  0  0  0  0  0  0
    0.0000    0.0000    0.0000 C   0  0  0  0  0  0  0  0  0  0  0  0
    0.0000    0.0000    0.0000 C   0  0  0  0  0  0  0  0  0  0  0  0
    0.0000    0.0000    0.0000 C   0  0  0  0  0  0  0  0  0  0  0  0
    0.0000    0.0000    0.0000 C   0  0  0  0  0  0  0  0  0  0  0  0
    0.0000    0.0000    0.0000 C   0  0  0  0  0  0  0  0  0  0  0  0
    0.0000    0.0000    0.0000 C   0  0  0  0  0  0  0  0  0  0  0  0
    0.0000    0.0000    0.0000 N   0  0  0  0  0  0  0  0  0  0  0  0
    0.0000    0.0000    0.0000 C   0  0  0  0  0  0  0  0  0  0  0  0
    0.0000    0.0000    0.0000 C   0  0  0  0  0  0  0  0  0  0  0  0
    0.0000    0.0000    0.0000 C   0  0  0  0  0  0  0  0  0  0  0  0
    0.0000    0.0000    0.0000 C   0  0  0  0  0  0  0  0  0  0  0  0
    0.0000    0.0000    0.0000 C   0  0  0  0  0  0  0  0  0  0  0  0
    0.0000    0.0000    0.0000 C   0  0  0  0  0  0  0  0  0  0  0  0
  1  2  1  0
  2  3  1  0
  3  4  1  0
  4  5  1  0
  5  6  1  0
  6  7  1  0
  7  8  1  0
  8  9  1  0
  9 10  1  0
 10 11  2  0
 11 12  1  0
 12 13  2  0
 13 14  1  0
 14 15  2  0
 15 16  1  0
 16 17  2  0
 17 18  1  0
 18 19  1  0
 19 20  1  0
 20 21  1  0
 21 22  1  0
 22 23  1  0
  7 24  1  0
 24 25  1  0
 25  4  1  0
 23 10  1  0
 17 12  1  0
 23 18  2  0
M  END
>  <pIC50>  (100) 
5.47

>  <ChEMBL_ID>  (100) 
CHEMBL35226

>  <document_journal>  (100) 
J. Med. Chem.

>  <bao_endpoint>  (100) 
BAO_0000190

>  <potential_duplicate>  (100) 
False

>  <uo_units>  (100) 
UO_0000065

>  <canonical_smiles>  (100) 
CCCN1CCC(COc2nc3ccccc3c4NCCCc24)CC1

>  <parent_molecule_chembl_id>  (100) 
CHEMBL35226

>  <assay_type>  (100) 
B

>  <src_id>  (100) 
1

>  <ligand_efficiency>  (100) 
{u'le': u'0.3', u'bei': u'16.11', u'sei': u'14.63', u'lle': u'1.03'}

>  <standard_flag>  (100) 
True

>  <molecule_chembl_id>  (100) 
CHEMBL35226

>  <target_organism>  (100) 
Homo sapiens

>  <standard_units>  (100) 
nM

>  <record_id>  (100) 
53680

>  <document_chembl_id>  (100) 
CHEMBL1145012

>  <bao_format>  (100) 
BAO_0000357

>  <data_validity_description>  (100) 
None

>  <activity_id>  (100) 
1098055

>  <standard_type>  (100) 
IC50

>  <target_chembl_id>  (100) 
CHEMBL217

>  <data_validity_comment>  (100) 
None

>  <published_value>  (100) 
0.0000034

>  <document_year>  (100) 
2003

>  <target_pref_name>  (100) 
Dopamine D2 receptor

>  <assay_chembl_id>  (100) 
CHEMBL670685

>  <standard_relation>  (100) 
=

>  <assay_description>  (100) 
Ability to displace [3H]YM-0915 from Dopamine receptor D2

>  <published_relation>  (100) 
=

>  <standard_value>  (100) 
3400

>  <qudt_units>  (100) 
http://www.openphacts.org/units/Nanomolar

>  <target_tax_id>  (100) 
9606

>  <bao_label>  (100) 
single protein format

>  <published_units>  (100) 
M

>  <pchembl_value>  (100) 
5.47

>  <published_type>  (100) 
IC50

>  <activity_comment>  (100) 
None

$$$$

     RDKit          

 23 26  0  0  0  0  0  0  0  0999 V2000
    0.0000    0.0000    0.0000 C   0  0  0  0  0  0  0  0  0  0  0  0
    0.0000    0.0000    0.0000 N   0  0  0  0  0  0  0  0  0  0  0  0
    0.0000    0.0000    0.0000 C   0  0  0  0  0  0  0  0  0  0  0  0
    0.0000    0.0000    0.0000 C   0  0  0  0  0  0  0  0  0  0  0  0
    0.0000    0.0000    0.0000 C   0  0  0  0  0  0  0  0  0  0  0  0
    0.0000    0.0000    0.0000 C   0  0  0  0  0  0  0  0  0  0  0  0
    0.0000    0.0000    0.0000 C   0  0  0  0  0  0  0  0  0  0  0  0
    0.0000    0.0000    0.0000 N   0  0  0  0  0  0  0  0  0  0  0  0
    0.0000    0.0000    0.0000 O   0  0  0  0  0  0  0  0  0  0  0  0
    0.0000    0.0000    0.0000 C   0  0  0  0  0  0  0  0  0  0  0  0
    0.0000    0.0000    0.0000 C   0  0  0  0  0  0  0  0  0  0  0  0
    0.0000    0.0000    0.0000 C   0  0  0  0  0  0  0  0  0  0  0  0
    0.0000    0.0000    0.0000 F   0  0  0  0  0  0  0  0  0  0  0  0
    0.0000    0.0000    0.0000 C   0  0  0  0  0  0  0  0  0  0  0  0
    0.0000    0.0000    0.0000 C   0  0  0  0  0  0  0  0  0  0  0  0
    0.0000    0.0000    0.0000 C   0  0  0  0  0  0  0  0  0  0  0  0
    0.0000    0.0000    0.0000 C   0  0  0  0  0  0  0  0  0  0  0  0
    0.0000    0.0000    0.0000 C   0  0  0  0  0  0  0  0  0  0  0  0
    0.0000    0.0000    0.0000 C   0  0  0  0  0  0  0  0  0  0  0  0
    0.0000    0.0000    0.0000 C   0  0  0  0  0  0  0  0  0  0  0  0
    0.0000    0.0000    0.0000 C   0  0  0  0  0  0  0  0  0  0  0  0
    0.0000    0.0000    0.0000 C   0  0  0  0  0  0  0  0  0  0  0  0
    0.0000    0.0000    0.0000 C   0  0  0  0  0  0  0  0  0  0  0  0
  1  2  1  0
  2  3  1  0
  2  4  1  0
  4  5  1  0
  5  6  1  0
  6  7  1  0
  7  8  1  0
  8  9  1  0
  8 10  1  0
 10 11  2  0
 11 12  1  0
 12 13  1  0
 12 14  2  0
 14 15  1  0
 15 16  2  0
 16 17  1  0
 17 18  1  0
 18 19  2  0
 19 20  1  0
 20 21  2  0
 21 22  1  0
 22 23  2  0
  9  5  1  0
 23  7  1  0
 16 10  1  0
 23 18  1  0
M  END
>  <pIC50>  (101) 
7.44

>  <ChEMBL_ID>  (101) 
CHEMBL84931

>  <document_journal>  (101) 
Bioorg. Med. Chem. Lett.

>  <bao_endpoint>  (101) 
BAO_0000190

>  <potential_duplicate>  (101) 
False

>  <uo_units>  (101) 
UO_0000065

>  <canonical_smiles>  (101) 
CN(C)CC1CC2N(O1)c3cc(F)ccc3Cc4ccccc24

>  <parent_molecule_chembl_id>  (101) 
CHEMBL84931

>  <assay_type>  (101) 
B

>  <src_id>  (101) 
1

>  <ligand_efficiency>  (101) 
{u'le': u'0.44', u'bei': u'23.82', u'sei': u'47.36', u'lle': u'3.57'}

>  <standard_flag>  (101) 
True

>  <molecule_chembl_id>  (101) 
CHEMBL84931

>  <target_organism>  (101) 
Homo sapiens

>  <standard_units>  (101) 
nM

>  <record_id>  (101) 
152192

>  <document_chembl_id>  (101) 
CHEMBL1135381

>  <bao_format>  (101) 
BAO_0000357

>  <data_validity_description>  (101) 
None

>  <activity_id>  (101) 
1152337

>  <standard_type>  (101) 
IC50

>  <target_chembl_id>  (101) 
CHEMBL217

>  <data_validity_comment>  (101) 
None

>  <published_value>  (101) 
7.44

>  <document_year>  (101) 
2002

>  <target_pref_name>  (101) 
Dopamine D2 receptor

>  <assay_chembl_id>  (101) 
CHEMBL672501

>  <standard_relation>  (101) 
=

>  <assay_description>  (101) 
Binding affinity for human cloned Dopamine receptor D2L

>  <published_relation>  (101) 
=

>  <standard_value>  (101) 
36.31

>  <qudt_units>  (101) 
http://www.openphacts.org/units/Nanomolar

>  <target_tax_id>  (101) 
9606

>  <bao_label>  (101) 
single protein format

>  <published_units>  (101) 
None

>  <pchembl_value>  (101) 
7.44

>  <published_type>  (101) 
pIC50

>  <activity_comment>  (101) 
None

$$$$

     RDKit          

 24 27  0  0  0  0  0  0  0  0999 V2000
    0.0000    0.0000    0.0000 C   0  0  0  0  0  0  0  0  0  0  0  0
    0.0000    0.0000    0.0000 N   0  0  0  0  0  0  0  0  0  0  0  0
    0.0000    0.0000    0.0000 C   0  0  0  0  0  0  0  0  0  0  0  0
    0.0000    0.0000    0.0000 C   0  0  0  0  0  0  0  0  0  0  0  0
    0.0000    0.0000    0.0000 C   0  0  0  0  0  0  0  0  0  0  0  0
    0.0000    0.0000    0.0000 C   0  0  0  0  0  0  0  0  0  0  0  0
    0.0000    0.0000    0.0000 C   0  0  0  0  0  0  0  0  0  0  0  0
    0.0000    0.0000    0.0000 N   0  0  0  0  0  0  0  0  0  0  0  0
    0.0000    0.0000    0.0000 O   0  0  0  0  0  0  0  0  0  0  0  0
    0.0000    0.0000    0.0000 C   0  0  0  0  0  0  0  0  0  0  0  0
    0.0000    0.0000    0.0000 C   0  0  0  0  0  0  0  0  0  0  0  0
    0.0000    0.0000    0.0000 C   0  0  0  0  0  0  0  0  0  0  0  0
    0.0000    0.0000    0.0000 F   0  0  0  0  0  0  0  0  0  0  0  0
    0.0000    0.0000    0.0000 C   0  0  0  0  0  0  0  0  0  0  0  0
    0.0000    0.0000    0.0000 C   0  0  0  0  0  0  0  0  0  0  0  0
    0.0000    0.0000    0.0000 C   0  0  0  0  0  0  0  0  0  0  0  0
    0.0000    0.0000    0.0000 C   0  0  0  0  0  0  0  0  0  0  0  0
    0.0000    0.0000    0.0000 C   0  0  0  0  0  0  0  0  0  0  0  0
    0.0000    0.0000    0.0000 C   0  0  0  0  0  0  0  0  0  0  0  0
    0.0000    0.0000    0.0000 C   0  0  0  0  0  0  0  0  0  0  0  0
    0.0000    0.0000    0.0000 C   0  0  0  0  0  0  0  0  0  0  0  0
    0.0000    0.0000    0.0000 F   0  0  0  0  0  0  0  0  0  0  0  0
    0.0000    0.0000    0.0000 C   0  0  0  0  0  0  0  0  0  0  0  0
    0.0000    0.0000    0.0000 C   0  0  0  0  0  0  0  0  0  0  0  0
  1  2  1  0
  2  3  1  0
  2  4  1  0
  4  5  1  0
  5  6  1  0
  6  7  1  0
  7  8  1  0
  8  9  1  0
  8 10  1  0
 10 11  2  0
 11 12  1  0
 12 13  1  0
 12 14  2  0
 14 15  1  0
 15 16  2  0
 16 17  1  0
 17 18  1  0
 18 19  2  0
 19 20  1  0
 20 21  2  0
 21 22  1  0
 21 23  1  0
 23 24  2  0
  9  5  1  0
 24  7  1  0
 16 10  1  0
 24 18  1  0
M  END
>  <pIC50>  (102) 
6.35

>  <ChEMBL_ID>  (102) 
CHEMBL314107

>  <document_journal>  (102) 
Bioorg. Med. Chem. Lett.

>  <bao_endpoint>  (102) 
BAO_0000190

>  <potential_duplicate>  (102) 
False

>  <uo_units>  (102) 
UO_0000065

>  <canonical_smiles>  (102) 
CN(C)CC1CC2N(O1)c3cc(F)ccc3Cc4ccc(F)cc24

>  <parent_molecule_chembl_id>  (102) 
CHEMBL314107

>  <assay_type>  (102) 
B

>  <src_id>  (102) 
1

>  <ligand_efficiency>  (102) 
{u'le': u'0.36', u'bei': u'19.22', u'sei': u'40.42', u'lle': u'2.28'}

>  <standard_flag>  (102) 
True

>  <molecule_chembl_id>  (102) 
CHEMBL314107

>  <target_organism>  (102) 
Homo sapiens

>  <standard_units>  (102) 
nM

>  <record_id>  (102) 
152191

>  <document_chembl_id>  (102) 
CHEMBL1135381

>  <bao_format>  (102) 
BAO_0000357

>  <data_validity_description>  (102) 
None

>  <activity_id>  (102) 
1154953

>  <standard_type>  (102) 
IC50

>  <target_chembl_id>  (102) 
CHEMBL217

>  <data_validity_comment>  (102) 
None

>  <published_value>  (102) 
6.35

>  <document_year>  (102) 
2002

>  <target_pref_name>  (102) 
Dopamine D2 receptor

>  <assay_chembl_id>  (102) 
CHEMBL672501

>  <standard_relation>  (102) 
=

>  <assay_description>  (102) 
Binding affinity for human cloned Dopamine receptor D2L

>  <published_relation>  (102) 
=

>  <standard_value>  (102) 
446.68

>  <qudt_units>  (102) 
http://www.openphacts.org/units/Nanomolar

>  <target_tax_id>  (102) 
9606

>  <bao_label>  (102) 
single protein format

>  <published_units>  (102) 
None

>  <pchembl_value>  (102) 
6.35

>  <published_type>  (102) 
pIC50

>  <activity_comment>  (102) 
None

$$$$

     RDKit          

 23 26  0  0  0  0  0  0  0  0999 V2000
    0.0000    0.0000    0.0000 C   0  0  0  0  0  0  0  0  0  0  0  0
    0.0000    0.0000    0.0000 N   0  0  0  0  0  0  0  0  0  0  0  0
    0.0000    0.0000    0.0000 C   0  0  0  0  0  0  0  0  0  0  0  0
    0.0000    0.0000    0.0000 C   0  0  0  0  0  0  0  0  0  0  0  0
    0.0000    0.0000    0.0000 C   0  0  0  0  0  0  0  0  0  0  0  0
    0.0000    0.0000    0.0000 C   0  0  0  0  0  0  0  0  0  0  0  0
    0.0000    0.0000    0.0000 C   0  0  0  0  0  0  0  0  0  0  0  0
    0.0000    0.0000    0.0000 N   0  0  0  0  0  0  0  0  0  0  0  0
    0.0000    0.0000    0.0000 O   0  0  0  0  0  0  0  0  0  0  0  0
    0.0000    0.0000    0.0000 C   0  0  0  0  0  0  0  0  0  0  0  0
    0.0000    0.0000    0.0000 C   0  0  0  0  0  0  0  0  0  0  0  0
    0.0000    0.0000    0.0000 C   0  0  0  0  0  0  0  0  0  0  0  0
    0.0000    0.0000    0.0000 C   0  0  0  0  0  0  0  0  0  0  0  0
    0.0000    0.0000    0.0000 C   0  0  0  0  0  0  0  0  0  0  0  0
    0.0000    0.0000    0.0000 C   0  0  0  0  0  0  0  0  0  0  0  0
    0.0000    0.0000    0.0000 C   0  0  0  0  0  0  0  0  0  0  0  0
    0.0000    0.0000    0.0000 C   0  0  0  0  0  0  0  0  0  0  0  0
    0.0000    0.0000    0.0000 C   0  0  0  0  0  0  0  0  0  0  0  0
    0.0000    0.0000    0.0000 C   0  0  0  0  0  0  0  0  0  0  0  0
    0.0000    0.0000    0.0000 C   0  0  0  0  0  0  0  0  0  0  0  0
    0.0000    0.0000    0.0000 C   0  0  0  0  0  0  0  0  0  0  0  0
    0.0000    0.0000    0.0000 C   0  0  0  0  0  0  0  0  0  0  0  0
    0.0000    0.0000    0.0000 C   0  0  0  0  0  0  0  0  0  0  0  0
  1  2  1  0
  2  3  1  0
  2  4  1  0
  4  5  1  0
  5  6  1  0
  6  7  1  0
  7  8  1  0
  8  9  1  0
  8 10  1  0
 10 11  2  0
 11 12  1  0
 12 13  1  0
 12 14  2  0
 14 15  1  0
 15 16  2  0
 16 17  1  0
 17 18  1  0
 18 19  2  0
 19 20  1  0
 20 21  2  0
 21 22  1  0
 22 23  2  0
  9  5  1  0
 23  7  1  0
 16 10  1  0
 23 18  1  0
M  END
>  <pIC50>  (103) 
7.26

>  <ChEMBL_ID>  (103) 
CHEMBL85735

>  <document_journal>  (103) 
Bioorg. Med. Chem. Lett.

>  <bao_endpoint>  (103) 
BAO_0000190

>  <potential_duplicate>  (103) 
False

>  <uo_units>  (103) 
UO_0000065

>  <canonical_smiles>  (103) 
CN(C)CC1CC2N(O1)c3cc(C)ccc3Cc4ccccc24

>  <parent_molecule_chembl_id>  (103) 
CHEMBL85735

>  <assay_type>  (103) 
B

>  <src_id>  (103) 
1

>  <ligand_efficiency>  (103) 
{u'le': u'0.43', u'bei': u'23.54', u'sei': u'46.21', u'lle': u'3.11'}

>  <standard_flag>  (103) 
True

>  <molecule_chembl_id>  (103) 
CHEMBL85735

>  <target_organism>  (103) 
Homo sapiens

>  <standard_units>  (103) 
nM

>  <record_id>  (103) 
152178

>  <document_chembl_id>  (103) 
CHEMBL1135381

>  <bao_format>  (103) 
BAO_0000357

>  <data_validity_description>  (103) 
None

>  <activity_id>  (103) 
1165701

>  <standard_type>  (103) 
IC50

>  <target_chembl_id>  (103) 
CHEMBL217

>  <data_validity_comment>  (103) 
None

>  <published_value>  (103) 
7.26

>  <document_year>  (103) 
2002

>  <target_pref_name>  (103) 
Dopamine D2 receptor

>  <assay_chembl_id>  (103) 
CHEMBL672501

>  <standard_relation>  (103) 
=

>  <assay_description>  (103) 
Binding affinity for human cloned Dopamine receptor D2L

>  <published_relation>  (103) 
=

>  <standard_value>  (103) 
54.95

>  <qudt_units>  (103) 
http://www.openphacts.org/units/Nanomolar

>  <target_tax_id>  (103) 
9606

>  <bao_label>  (103) 
single protein format

>  <published_units>  (103) 
None

>  <pchembl_value>  (103) 
7.26

>  <published_type>  (103) 
pIC50

>  <activity_comment>  (103) 
None

$$$$

     RDKit          

 26 29  0  0  0  0  0  0  0  0999 V2000
    0.0000    0.0000    0.0000 C   0  0  0  0  0  0  0  0  0  0  0  0
    0.0000    0.0000    0.0000 N   0  0  0  0  0  0  0  0  0  0  0  0
    0.0000    0.0000    0.0000 C   0  0  0  0  0  0  0  0  0  0  0  0
    0.0000    0.0000    0.0000 C   0  0  0  0  0  0  0  0  0  0  0  0
    0.0000    0.0000    0.0000 C   0  0  0  0  0  0  0  0  0  0  0  0
    0.0000    0.0000    0.0000 C   0  0  0  0  0  0  0  0  0  0  0  0
    0.0000    0.0000    0.0000 C   0  0  0  0  0  0  0  0  0  0  0  0
    0.0000    0.0000    0.0000 C   0  0  0  0  0  0  0  0  0  0  0  0
    0.0000    0.0000    0.0000 C   0  0  0  0  0  0  0  0  0  0  0  0
    0.0000    0.0000    0.0000 N   0  0  0  0  0  0  0  0  0  0  0  0
    0.0000    0.0000    0.0000 C   0  0  0  0  0  0  0  0  0  0  0  0
    0.0000    0.0000    0.0000 C   0  0  0  0  0  0  0  0  0  0  0  0
    0.0000    0.0000    0.0000 C   0  0  0  0  0  0  0  0  0  0  0  0
    0.0000    0.0000    0.0000 C   0  0  0  0  0  0  0  0  0  0  0  0
    0.0000    0.0000    0.0000 C   0  0  0  0  0  0  0  0  0  0  0  0
    0.0000    0.0000    0.0000 C   0  0  0  0  0  0  0  0  0  0  0  0
    0.0000    0.0000    0.0000 S   0  0  0  0  0  0  0  0  0  0  0  0
    0.0000    0.0000    0.0000 C   0  0  0  0  0  0  0  0  0  0  0  0
    0.0000    0.0000    0.0000 C   0  0  0  0  0  0  0  0  0  0  0  0
    0.0000    0.0000    0.0000 C   0  0  0  0  0  0  0  0  0  0  0  0
    0.0000    0.0000    0.0000 C   0  0  0  0  0  0  0  0  0  0  0  0
    0.0000    0.0000    0.0000 C   0  0  0  0  0  0  0  0  0  0  0  0
    0.0000    0.0000    0.0000 C   0  0  0  0  0  0  0  0  0  0  0  0
    0.0000    0.0000    0.0000 S   0  0  0  0  0  0  0  0  0  0  0  0
    0.0000    0.0000    0.0000 C   0  0  0  0  0  0  0  0  0  0  0  0
    0.0000    0.0000    0.0000 O   0  0  0  0  0  0  0  0  0  0  0  0
  1  2  1  0
  2  3  1  0
  3  4  1  0
  4  5  1  0
  5  6  1  0
  6  7  1  0
  7  8  1  0
  8  9  1  0
  9 10  1  0
 10 11  1  0
 11 12  2  0
 12 13  1  0
 13 14  2  0
 14 15  1  0
 15 16  2  0
 16 17  1  0
 17 18  1  0
 18 19  2  0
 19 20  1  0
 20 21  2  0
 21 22  1  0
 22 23  2  0
 21 24  1  0
 24 25  1  0
 24 26  1  0
  7  2  1  0
 23 10  1  0
 16 11  1  0
 23 18  1  0
M  CHG  2  24   1  26  -1
M  END
>  <pIC50>  (104) 
7.155

>  <ChEMBL_ID>  (104) 
CHEMBL611207

>  <document_journal>  (104) 
Bioorg. Med. Chem. Lett.

>  <bao_endpoint>  (104) 
BAO_0000190

>  <potential_duplicate>  (104) 
False

>  <uo_units>  (104) 
UO_0000065

>  <canonical_smiles>  (104) 
CN1CCCC[C@@H]1CCN2c3ccccc3Sc4ccc(cc24)[S+](C)[O-]

>  <parent_molecule_chembl_id>  (104) 
CHEMBL611207

>  <assay_type>  (104) 
B

>  <src_id>  (104) 
1

>  <ligand_efficiency>  (104) 
{u'le': u'0.38', u'bei': u'18.63', u'sei': u'10.58', u'lle': u'2.75'}

>  <standard_flag>  (104) 
True

>  <molecule_chembl_id>  (104) 
CHEMBL611207

>  <target_organism>  (104) 
Homo sapiens

>  <standard_units>  (104) 
nM

>  <record_id>  (104) 
373798

>  <document_chembl_id>  (104) 
CHEMBL1137093

>  <bao_format>  (104) 
BAO_0000357

>  <data_validity_description>  (104) 
None

>  <activity_id>  (104) 
1442592

>  <standard_type>  (104) 
IC50

>  <target_chembl_id>  (104) 
CHEMBL217

>  <data_validity_comment>  (104) 
None

>  <published_value>  (104) 
63

>  <document_year>  (104) 
2004

>  <target_pref_name>  (104) 
Dopamine D2 receptor

>  <assay_chembl_id>  (104) 
CHEMBL833053

>  <standard_relation>  (104) 
=

>  <assay_description>  (104) 
Concentration required to inhibit [3H]YM-09151-2 binding to human D2 dopamine receptor

>  <published_relation>  (104) 
=

>  <standard_value>  (104) 
63

>  <qudt_units>  (104) 
http://www.openphacts.org/units/Nanomolar

>  <target_tax_id>  (104) 
9606

>  <bao_label>  (104) 
single protein format

>  <published_units>  (104) 
nM

>  <pchembl_value>  (104) 
7.2

>  <published_type>  (104) 
IC50

>  <activity_comment>  (104) 
None

$$$$

     RDKit          

 26 29  0  0  0  0  0  0  0  0999 V2000
    0.0000    0.0000    0.0000 C   0  0  0  0  0  0  0  0  0  0  0  0
    0.0000    0.0000    0.0000 N   0  0  0  0  0  0  0  0  0  0  0  0
    0.0000    0.0000    0.0000 C   0  0  0  0  0  0  0  0  0  0  0  0
    0.0000    0.0000    0.0000 C   0  0  0  0  0  0  0  0  0  0  0  0
    0.0000    0.0000    0.0000 C   0  0  0  0  0  0  0  0  0  0  0  0
    0.0000    0.0000    0.0000 C   0  0  0  0  0  0  0  0  0  0  0  0
    0.0000    0.0000    0.0000 C   0  0  0  0  0  0  0  0  0  0  0  0
    0.0000    0.0000    0.0000 C   0  0  0  0  0  0  0  0  0  0  0  0
    0.0000    0.0000    0.0000 C   0  0  0  0  0  0  0  0  0  0  0  0
    0.0000    0.0000    0.0000 N   0  0  0  0  0  0  0  0  0  0  0  0
    0.0000    0.0000    0.0000 C   0  0  0  0  0  0  0  0  0  0  0  0
    0.0000    0.0000    0.0000 C   0  0  0  0  0  0  0  0  0  0  0  0
    0.0000    0.0000    0.0000 C   0  0  0  0  0  0  0  0  0  0  0  0
    0.0000    0.0000    0.0000 C   0  0  0  0  0  0  0  0  0  0  0  0
    0.0000    0.0000    0.0000 C   0  0  0  0  0  0  0  0  0  0  0  0
    0.0000    0.0000    0.0000 C   0  0  0  0  0  0  0  0  0  0  0  0
    0.0000    0.0000    0.0000 S   0  0  0  0  0  0  0  0  0  0  0  0
    0.0000    0.0000    0.0000 C   0  0  0  0  0  0  0  0  0  0  0  0
    0.0000    0.0000    0.0000 C   0  0  0  0  0  0  0  0  0  0  0  0
    0.0000    0.0000    0.0000 C   0  0  0  0  0  0  0  0  0  0  0  0
    0.0000    0.0000    0.0000 C   0  0  0  0  0  0  0  0  0  0  0  0
    0.0000    0.0000    0.0000 C   0  0  0  0  0  0  0  0  0  0  0  0
    0.0000    0.0000    0.0000 C   0  0  0  0  0  0  0  0  0  0  0  0
    0.0000    0.0000    0.0000 S   0  0  0  0  0  0  0  0  0  0  0  0
    0.0000    0.0000    0.0000 C   0  0  0  0  0  0  0  0  0  0  0  0
    0.0000    0.0000    0.0000 O   0  0  0  0  0  0  0  0  0  0  0  0
  1  2  1  0
  2  3  1  0
  3  4  1  0
  4  5  1  0
  5  6  1  0
  6  7  1  0
  7  8  1  0
  8  9  1  0
  9 10  1  0
 10 11  1  0
 11 12  2  0
 12 13  1  0
 13 14  2  0
 14 15  1  0
 15 16  2  0
 16 17  1  0
 17 18  1  0
 18 19  2  0
 19 20  1  0
 20 21  2  0
 21 22  1  0
 22 23  2  0
 21 24  1  0
 24 25  1  0
 24 26  1  0
  7  2  1  0
 23 10  1  0
 16 11  1  0
 23 18  1  0
M  CHG  2  24   1  26  -1
M  END
>  <pIC50>  (105) 
6.005

>  <ChEMBL_ID>  (105) 
CHEMBL608530

>  <document_journal>  (105) 
Bioorg. Med. Chem. Lett.

>  <bao_endpoint>  (105) 
BAO_0000190

>  <potential_duplicate>  (105) 
False

>  <uo_units>  (105) 
UO_0000065

>  <canonical_smiles>  (105) 
CN1CCCC[C@H]1CCN2c3ccccc3Sc4ccc(cc24)[S+](C)[O-]

>  <parent_molecule_chembl_id>  (105) 
CHEMBL608530

>  <assay_type>  (105) 
B

>  <src_id>  (105) 
1

>  <ligand_efficiency>  (105) 
{u'le': u'0.32', u'bei': u'15.72', u'sei': u'8.93', u'lle': u'1.63'}

>  <standard_flag>  (105) 
True

>  <molecule_chembl_id>  (105) 
CHEMBL608530

>  <target_organism>  (105) 
Homo sapiens

>  <standard_units>  (105) 
nM

>  <record_id>  (105) 
373767

>  <document_chembl_id>  (105) 
CHEMBL1137093

>  <bao_format>  (105) 
BAO_0000357

>  <data_validity_description>  (105) 
None

>  <activity_id>  (105) 
1444387

>  <standard_type>  (105) 
IC50

>  <target_chembl_id>  (105) 
CHEMBL217

>  <data_validity_comment>  (105) 
None

>  <published_value>  (105) 
837

>  <document_year>  (105) 
2004

>  <target_pref_name>  (105) 
Dopamine D2 receptor

>  <assay_chembl_id>  (105) 
CHEMBL833053

>  <standard_relation>  (105) 
=

>  <assay_description>  (105) 
Concentration required to inhibit [3H]YM-09151-2 binding to human D2 dopamine receptor

>  <published_relation>  (105) 
=

>  <standard_value>  (105) 
837

>  <qudt_units>  (105) 
http://www.openphacts.org/units/Nanomolar

>  <target_tax_id>  (105) 
9606

>  <bao_label>  (105) 
single protein format

>  <published_units>  (105) 
nM

>  <pchembl_value>  (105) 
6.08

>  <published_type>  (105) 
IC50

>  <activity_comment>  (105) 
None

$$$$

     RDKit          

 35 39  0  0  0  0  0  0  0  0999 V2000
    0.0000    0.0000    0.0000 Cl  0  0  0  0  0  0  0  0  0  0  0  0
    0.0000    0.0000    0.0000 C   0  0  0  0  0  0  0  0  0  0  0  0
    0.0000    0.0000    0.0000 C   0  0  0  0  0  0  0  0  0  0  0  0
    0.0000    0.0000    0.0000 C   0  0  0  0  0  0  0  0  0  0  0  0
    0.0000    0.0000    0.0000 C   0  0  0  0  0  0  0  0  0  0  0  0
    0.0000    0.0000    0.0000 C   0  0  0  0  0  0  0  0  0  0  0  0
    0.0000    0.0000    0.0000 N   0  0  0  0  0  0  0  0  0  0  0  0
    0.0000    0.0000    0.0000 C   0  0  0  0  0  0  0  0  0  0  0  0
    0.0000    0.0000    0.0000 C   0  0  0  0  0  0  0  0  0  0  0  0
    0.0000    0.0000    0.0000 N   0  0  0  0  0  0  0  0  0  0  0  0
    0.0000    0.0000    0.0000 C   0  0  0  0  0  0  0  0  0  0  0  0
    0.0000    0.0000    0.0000 C   0  0  0  0  0  0  0  0  0  0  0  0
    0.0000    0.0000    0.0000 C   0  0  0  0  0  0  0  0  0  0  0  0
    0.0000    0.0000    0.0000 C   0  0  0  0  0  0  0  0  0  0  0  0
    0.0000    0.0000    0.0000 N   0  0  0  0  0  0  0  0  0  0  0  0
    0.0000    0.0000    0.0000 C   0  0  0  0  0  0  0  0  0  0  0  0
    0.0000    0.0000    0.0000 O   0  0  0  0  0  0  0  0  0  0  0  0
    0.0000    0.0000    0.0000 C   0  0  0  0  0  0  0  0  0  0  0  0
    0.0000    0.0000    0.0000 C   0  0  0  0  0  0  0  0  0  0  0  0
    0.0000    0.0000    0.0000 C   0  0  0  0  0  0  0  0  0  0  0  0
    0.0000    0.0000    0.0000 C   0  0  0  0  0  0  0  0  0  0  0  0
    0.0000    0.0000    0.0000 C   0  0  0  0  0  0  0  0  0  0  0  0
    0.0000    0.0000    0.0000 C   0  0  0  0  0  0  0  0  0  0  0  0
    0.0000    0.0000    0.0000 O   0  0  0  0  0  0  0  0  0  0  0  0
    0.0000    0.0000    0.0000 C   0  0  0  0  0  0  0  0  0  0  0  0
    0.0000    0.0000    0.0000 C   0  0  0  0  0  0  0  0  0  0  0  0
    0.0000    0.0000    0.0000 C   0  0  0  0  0  0  0  0  0  0  0  0
    0.0000    0.0000    0.0000 C   0  0  0  0  0  0  0  0  0  0  0  0
    0.0000    0.0000    0.0000 C   0  0  0  0  0  0  0  0  0  0  0  0
    0.0000    0.0000    0.0000 C   0  0  0  0  0  0  0  0  0  0  0  0
    0.0000    0.0000    0.0000 C   0  0  0  0  0  0  0  0  0  0  0  0
    0.0000    0.0000    0.0000 C   0  0  0  0  0  0  0  0  0  0  0  0
    0.0000    0.0000    0.0000 C   0  0  0  0  0  0  0  0  0  0  0  0
    0.0000    0.0000    0.0000 C   0  0  0  0  0  0  0  0  0  0  0  0
    0.0000    0.0000    0.0000 Cl  0  0  0  0  0  0  0  0  0  0  0  0
  1  2  1  0
  2  3  2  0
  3  4  1  0
  4  5  2  0
  5  6  1  0
  6  7  1  0
  7  8  1  0
  8  9  1  0
  9 10  1  0
 10 11  1  0
 11 12  1  0
 12 13  1  0
 13 14  1  0
 14 15  1  0
 15 16  1  0
 16 17  2  0
 16 18  1  0
 18 19  2  0
 19 20  1  0
 20 21  2  0
 21 22  1  0
 22 23  1  0
 23 24  2  0
 23 25  1  0
 25 26  2  0
 26 27  1  0
 27 28  2  0
 28 29  1  0
 29 30  2  0
 30 31  1  0
 10 32  1  0
 32 33  1  0
  6 34  2  0
 34 35  1  0
 34  2  1  0
 33  7  1  0
 31 18  1  0
 31 22  2  0
 30 25  1  0
M  END
>  <pIC50>  (106) 
7.645

>  <ChEMBL_ID>  (106) 
CHEMBL301242

>  <document_journal>  (106) 
J. Med. Chem.

>  <bao_endpoint>  (106) 
BAO_0000190

>  <potential_duplicate>  (106) 
False

>  <uo_units>  (106) 
UO_0000065

>  <canonical_smiles>  (106) 
Clc1cccc(N2CCN(CCCCNC(=O)c3cccc4C(=O)c5ccccc5c34)CC2)c1Cl

>  <parent_molecule_chembl_id>  (106) 
CHEMBL301242

>  <assay_type>  (106) 
F

>  <src_id>  (106) 
1

>  <ligand_efficiency>  (106) 
None

>  <standard_flag>  (106) 
True

>  <molecule_chembl_id>  (106) 
CHEMBL301242

>  <target_organism>  (106) 
Homo sapiens

>  <standard_units>  (106) 
nM

>  <record_id>  (106) 
391188

>  <document_chembl_id>  (106) 
CHEMBL1139520

>  <bao_format>  (106) 
BAO_0000219

>  <data_validity_description>  (106) 
None

>  <activity_id>  (106) 
1508803

>  <standard_type>  (106) 
IC50

>  <target_chembl_id>  (106) 
CHEMBL217

>  <data_validity_comment>  (106) 
None

>  <published_value>  (106) 
14.6

>  <document_year>  (106) 
2005

>  <target_pref_name>  (106) 
Dopamine D2 receptor

>  <assay_chembl_id>  (106) 
CHEMBL827419

>  <standard_relation>  (106) 
=

>  <assay_description>  (106) 
Mitogenic stimulation or antagonism of 30 nM quinpirole-stimulated mitogenesis in CHO cells expressing human dopamine D2 receptor

>  <published_relation>  (106) 
=

>  <standard_value>  (106) 
14.6

>  <qudt_units>  (106) 
http://www.openphacts.org/units/Nanomolar

>  <target_tax_id>  (106) 
9606

>  <bao_label>  (106) 
cell-based format

>  <published_units>  (106) 
nM

>  <pchembl_value>  (106) 
7.84

>  <published_type>  (106) 
IC50

>  <activity_comment>  (106) 
None

$$$$

     RDKit          

 30 33  0  0  0  0  0  0  0  0999 V2000
    0.0000    0.0000    0.0000 Cl  0  0  0  0  0  0  0  0  0  0  0  0
    0.0000    0.0000    0.0000 C   0  0  0  0  0  0  0  0  0  0  0  0
    0.0000    0.0000    0.0000 C   0  0  0  0  0  0  0  0  0  0  0  0
    0.0000    0.0000    0.0000 C   0  0  0  0  0  0  0  0  0  0  0  0
    0.0000    0.0000    0.0000 C   0  0  0  0  0  0  0  0  0  0  0  0
    0.0000    0.0000    0.0000 C   0  0  0  0  0  0  0  0  0  0  0  0
    0.0000    0.0000    0.0000 N   0  0  0  0  0  0  0  0  0  0  0  0
    0.0000    0.0000    0.0000 C   0  0  0  0  0  0  0  0  0  0  0  0
    0.0000    0.0000    0.0000 C   0  0  0  0  0  0  0  0  0  0  0  0
    0.0000    0.0000    0.0000 N   0  0  0  0  0  0  0  0  0  0  0  0
    0.0000    0.0000    0.0000 C   0  0  0  0  0  0  0  0  0  0  0  0
    0.0000    0.0000    0.0000 C   0  0  0  0  0  0  0  0  0  0  0  0
    0.0000    0.0000    0.0000 C   0  0  0  0  0  0  0  0  0  0  0  0
    0.0000    0.0000    0.0000 C   0  0  0  0  0  0  0  0  0  0  0  0
    0.0000    0.0000    0.0000 N   0  0  0  0  0  0  0  0  0  0  0  0
    0.0000    0.0000    0.0000 C   0  0  0  0  0  0  0  0  0  0  0  0
    0.0000    0.0000    0.0000 O   0  0  0  0  0  0  0  0  0  0  0  0
    0.0000    0.0000    0.0000 C   0  0  0  0  0  0  0  0  0  0  0  0
    0.0000    0.0000    0.0000 C   0  0  0  0  0  0  0  0  0  0  0  0
    0.0000    0.0000    0.0000 C   0  0  0  0  0  0  0  0  0  0  0  0
    0.0000    0.0000    0.0000 C   0  0  0  0  0  0  0  0  0  0  0  0
    0.0000    0.0000    0.0000 C   0  0  0  0  0  0  0  0  0  0  0  0
    0.0000    0.0000    0.0000 C   0  0  0  0  0  0  0  0  0  0  0  0
    0.0000    0.0000    0.0000 C   0  0  0  0  0  0  0  0  0  0  0  0
    0.0000    0.0000    0.0000 C   0  0  0  0  0  0  0  0  0  0  0  0
    0.0000    0.0000    0.0000 S   0  0  0  0  0  0  0  0  0  0  0  0
    0.0000    0.0000    0.0000 C   0  0  0  0  0  0  0  0  0  0  0  0
    0.0000    0.0000    0.0000 C   0  0  0  0  0  0  0  0  0  0  0  0
    0.0000    0.0000    0.0000 C   0  0  0  0  0  0  0  0  0  0  0  0
    0.0000    0.0000    0.0000 Cl  0  0  0  0  0  0  0  0  0  0  0  0
  1  2  1  0
  2  3  2  0
  3  4  1  0
  4  5  2  0
  5  6  1  0
  6  7  1  0
  7  8  1  0
  8  9  1  0
  9 10  1  0
 10 11  1  0
 11 12  1  0
 12 13  1  0
 13 14  1  0
 14 15  1  0
 15 16  1  0
 16 17  2  0
 16 18  1  0
 18 19  2  0
 19 20  1  0
 20 21  2  0
 21 22  1  0
 22 23  2  0
 23 24  1  0
 24 25  2  0
 25 26  1  0
 10 27  1  0
 27 28  1  0
  6 29  2  0
 29 30  1  0
 29  2  1  0
 28  7  1  0
 26 18  1  0
 25 20  1  0
M  END
>  <pIC50>  (107) 
7.02

>  <ChEMBL_ID>  (107) 
CHEMBL59725

>  <document_journal>  (107) 
J. Med. Chem.

>  <bao_endpoint>  (107) 
BAO_0000190

>  <potential_duplicate>  (107) 
False

>  <uo_units>  (107) 
UO_0000065

>  <canonical_smiles>  (107) 
Clc1cccc(N2CCN(CCCCNC(=O)c3cc4ccccc4s3)CC2)c1Cl

>  <parent_molecule_chembl_id>  (107) 
CHEMBL59725

>  <assay_type>  (107) 
F

>  <src_id>  (107) 
1

>  <ligand_efficiency>  (107) 
None

>  <standard_flag>  (107) 
True

>  <molecule_chembl_id>  (107) 
CHEMBL59725

>  <target_organism>  (107) 
Homo sapiens

>  <standard_units>  (107) 
nM

>  <record_id>  (107) 
391213

>  <document_chembl_id>  (107) 
CHEMBL1139520

>  <bao_format>  (107) 
BAO_0000219

>  <data_validity_description>  (107) 
None

>  <activity_id>  (107) 
1508820

>  <standard_type>  (107) 
IC50

>  <target_chembl_id>  (107) 
CHEMBL217

>  <data_validity_comment>  (107) 
None

>  <published_value>  (107) 
94.7

>  <document_year>  (107) 
2005

>  <target_pref_name>  (107) 
Dopamine D2 receptor

>  <assay_chembl_id>  (107) 
CHEMBL827419

>  <standard_relation>  (107) 
=

>  <assay_description>  (107) 
Mitogenic stimulation or antagonism of 30 nM quinpirole-stimulated mitogenesis in CHO cells expressing human dopamine D2 receptor

>  <published_relation>  (107) 
=

>  <standard_value>  (107) 
94.7

>  <qudt_units>  (107) 
http://www.openphacts.org/units/Nanomolar

>  <target_tax_id>  (107) 
9606

>  <bao_label>  (107) 
cell-based format

>  <published_units>  (107) 
nM

>  <pchembl_value>  (107) 
7.02

>  <published_type>  (107) 
IC50

>  <activity_comment>  (107) 
None

$$$$

     RDKit          

 30 33  0  0  0  0  0  0  0  0999 V2000
    0.0000    0.0000    0.0000 Cl  0  0  0  0  0  0  0  0  0  0  0  0
    0.0000    0.0000    0.0000 C   0  0  0  0  0  0  0  0  0  0  0  0
    0.0000    0.0000    0.0000 C   0  0  0  0  0  0  0  0  0  0  0  0
    0.0000    0.0000    0.0000 C   0  0  0  0  0  0  0  0  0  0  0  0
    0.0000    0.0000    0.0000 C   0  0  0  0  0  0  0  0  0  0  0  0
    0.0000    0.0000    0.0000 C   0  0  0  0  0  0  0  0  0  0  0  0
    0.0000    0.0000    0.0000 N   0  0  0  0  0  0  0  0  0  0  0  0
    0.0000    0.0000    0.0000 C   0  0  0  0  0  0  0  0  0  0  0  0
    0.0000    0.0000    0.0000 C   0  0  0  0  0  0  0  0  0  0  0  0
    0.0000    0.0000    0.0000 N   0  0  0  0  0  0  0  0  0  0  0  0
    0.0000    0.0000    0.0000 C   0  0  0  0  0  0  0  0  0  0  0  0
    0.0000    0.0000    0.0000 C   0  0  0  0  0  0  0  0  0  0  0  0
    0.0000    0.0000    0.0000 C   0  0  0  0  0  0  0  0  0  0  0  0
    0.0000    0.0000    0.0000 C   0  0  0  0  0  0  0  0  0  0  0  0
    0.0000    0.0000    0.0000 N   0  0  0  0  0  0  0  0  0  0  0  0
    0.0000    0.0000    0.0000 C   0  0  0  0  0  0  0  0  0  0  0  0
    0.0000    0.0000    0.0000 O   0  0  0  0  0  0  0  0  0  0  0  0
    0.0000    0.0000    0.0000 C   0  0  0  0  0  0  0  0  0  0  0  0
    0.0000    0.0000    0.0000 O   0  0  0  0  0  0  0  0  0  0  0  0
    0.0000    0.0000    0.0000 C   0  0  0  0  0  0  0  0  0  0  0  0
    0.0000    0.0000    0.0000 C   0  0  0  0  0  0  0  0  0  0  0  0
    0.0000    0.0000    0.0000 C   0  0  0  0  0  0  0  0  0  0  0  0
    0.0000    0.0000    0.0000 C   0  0  0  0  0  0  0  0  0  0  0  0
    0.0000    0.0000    0.0000 C   0  0  0  0  0  0  0  0  0  0  0  0
    0.0000    0.0000    0.0000 C   0  0  0  0  0  0  0  0  0  0  0  0
    0.0000    0.0000    0.0000 C   0  0  0  0  0  0  0  0  0  0  0  0
    0.0000    0.0000    0.0000 C   0  0  0  0  0  0  0  0  0  0  0  0
    0.0000    0.0000    0.0000 C   0  0  0  0  0  0  0  0  0  0  0  0
    0.0000    0.0000    0.0000 C   0  0  0  0  0  0  0  0  0  0  0  0
    0.0000    0.0000    0.0000 Cl  0  0  0  0  0  0  0  0  0  0  0  0
  1  2  1  0
  2  3  2  0
  3  4  1  0
  4  5  2  0
  5  6  1  0
  6  7  1  0
  7  8  1  0
  8  9  1  0
  9 10  1  0
 10 11  1  0
 11 12  1  0
 12 13  1  0
 13 14  1  0
 14 15  1  0
 15 16  1  0
 16 17  2  0
 16 18  1  0
 18 19  1  0
 19 20  1  0
 20 21  2  0
 21 22  1  0
 22 23  2  0
 23 24  1  0
 24 25  2  0
 25 26  1  0
 10 27  1  0
 27 28  1  0
  6 29  2  0
 29 30  1  0
 29  2  1  0
 28  7  1  0
 26 18  2  0
 25 20  1  0
M  END
>  <pIC50>  (108) 
6.93

>  <ChEMBL_ID>  (108) 
CHEMBL139926

>  <document_journal>  (108) 
J. Med. Chem.

>  <bao_endpoint>  (108) 
BAO_0000190

>  <potential_duplicate>  (108) 
False

>  <uo_units>  (108) 
UO_0000065

>  <canonical_smiles>  (108) 
Clc1cccc(N2CCN(CCCCNC(=O)c3oc4ccccc4c3)CC2)c1Cl

>  <parent_molecule_chembl_id>  (108) 
CHEMBL139926

>  <assay_type>  (108) 
F

>  <src_id>  (108) 
1

>  <ligand_efficiency>  (108) 
None

>  <standard_flag>  (108) 
True

>  <molecule_chembl_id>  (108) 
CHEMBL139926

>  <target_organism>  (108) 
Homo sapiens

>  <standard_units>  (108) 
nM

>  <record_id>  (108) 
391240

>  <document_chembl_id>  (108) 
CHEMBL1139520

>  <bao_format>  (108) 
BAO_0000219

>  <data_validity_description>  (108) 
None

>  <activity_id>  (108) 
1508837

>  <standard_type>  (108) 
IC50

>  <target_chembl_id>  (108) 
CHEMBL217

>  <data_validity_comment>  (108) 
None

>  <published_value>  (108) 
118

>  <document_year>  (108) 
2005

>  <target_pref_name>  (108) 
Dopamine D2 receptor

>  <assay_chembl_id>  (108) 
CHEMBL827419

>  <standard_relation>  (108) 
=

>  <assay_description>  (108) 
Mitogenic stimulation or antagonism of 30 nM quinpirole-stimulated mitogenesis in CHO cells expressing human dopamine D2 receptor

>  <published_relation>  (108) 
=

>  <standard_value>  (108) 
118

>  <qudt_units>  (108) 
http://www.openphacts.org/units/Nanomolar

>  <target_tax_id>  (108) 
9606

>  <bao_label>  (108) 
cell-based format

>  <published_units>  (108) 
nM

>  <pchembl_value>  (108) 
6.93

>  <published_type>  (108) 
IC50

>  <activity_comment>  (108) 
None

$$$$

     RDKit          

 28 30  0  0  0  0  0  0  0  0999 V2000
    0.0000    0.0000    0.0000 Cl  0  0  0  0  0  0  0  0  0  0  0  0
    0.0000    0.0000    0.0000 C   0  0  0  0  0  0  0  0  0  0  0  0
    0.0000    0.0000    0.0000 C   0  0  0  0  0  0  0  0  0  0  0  0
    0.0000    0.0000    0.0000 C   0  0  0  0  0  0  0  0  0  0  0  0
    0.0000    0.0000    0.0000 C   0  0  0  0  0  0  0  0  0  0  0  0
    0.0000    0.0000    0.0000 C   0  0  0  0  0  0  0  0  0  0  0  0
    0.0000    0.0000    0.0000 N   0  0  0  0  0  0  0  0  0  0  0  0
    0.0000    0.0000    0.0000 C   0  0  0  0  0  0  0  0  0  0  0  0
    0.0000    0.0000    0.0000 C   0  0  0  0  0  0  0  0  0  0  0  0
    0.0000    0.0000    0.0000 N   0  0  0  0  0  0  0  0  0  0  0  0
    0.0000    0.0000    0.0000 C   0  0  0  0  0  0  0  0  0  0  0  0
    0.0000    0.0000    0.0000 C   0  0  0  0  0  0  0  0  0  0  0  0
    0.0000    0.0000    0.0000 C   0  0  0  0  0  0  0  0  0  0  0  0
    0.0000    0.0000    0.0000 C   0  0  0  0  0  0  0  0  0  0  0  0
    0.0000    0.0000    0.0000 N   0  0  0  0  0  0  0  0  0  0  0  0
    0.0000    0.0000    0.0000 C   0  0  0  0  0  0  0  0  0  0  0  0
    0.0000    0.0000    0.0000 O   0  0  0  0  0  0  0  0  0  0  0  0
    0.0000    0.0000    0.0000 C   0  0  0  0  0  0  0  0  0  0  0  0
    0.0000    0.0000    0.0000 C   0  0  0  0  0  0  0  0  0  0  0  0
    0.0000    0.0000    0.0000 C   0  0  0  0  0  0  0  0  0  0  0  0
    0.0000    0.0000    0.0000 C   0  0  0  0  0  0  0  0  0  0  0  0
    0.0000    0.0000    0.0000 I   0  0  0  0  0  0  0  0  0  0  0  0
    0.0000    0.0000    0.0000 C   0  0  0  0  0  0  0  0  0  0  0  0
    0.0000    0.0000    0.0000 C   0  0  0  0  0  0  0  0  0  0  0  0
    0.0000    0.0000    0.0000 C   0  0  0  0  0  0  0  0  0  0  0  0
    0.0000    0.0000    0.0000 C   0  0  0  0  0  0  0  0  0  0  0  0
    0.0000    0.0000    0.0000 C   0  0  0  0  0  0  0  0  0  0  0  0
    0.0000    0.0000    0.0000 Cl  0  0  0  0  0  0  0  0  0  0  0  0
  1  2  1  0
  2  3  2  0
  3  4  1  0
  4  5  2  0
  5  6  1  0
  6  7  1  0
  7  8  1  0
  8  9  1  0
  9 10  1  0
 10 11  1  0
 11 12  1  0
 12 13  1  0
 13 14  1  0
 14 15  1  0
 15 16  1  0
 16 17  2  0
 16 18  1  0
 18 19  2  0
 19 20  1  0
 20 21  2  0
 21 22  1  0
 21 23  1  0
 23 24  2  0
 10 25  1  0
 25 26  1  0
  6 27  2  0
 27 28  1  0
 27  2  1  0
 26  7  1  0
 24 18  1  0
M  END
>  <pIC50>  (109) 
7.26

>  <ChEMBL_ID>  (109) 
CHEMBL302374

>  <document_journal>  (109) 
J. Med. Chem.

>  <bao_endpoint>  (109) 
BAO_0000190

>  <potential_duplicate>  (109) 
False

>  <uo_units>  (109) 
UO_0000065

>  <canonical_smiles>  (109) 
Clc1cccc(N2CCN(CCCCNC(=O)c3ccc(I)cc3)CC2)c1Cl

>  <parent_molecule_chembl_id>  (109) 
CHEMBL302374

>  <assay_type>  (109) 
F

>  <src_id>  (109) 
1

>  <ligand_efficiency>  (109) 
None

>  <standard_flag>  (109) 
True

>  <molecule_chembl_id>  (109) 
CHEMBL302374

>  <target_organism>  (109) 
Homo sapiens

>  <standard_units>  (109) 
nM

>  <record_id>  (109) 
391326

>  <document_chembl_id>  (109) 
CHEMBL1139520

>  <bao_format>  (109) 
BAO_0000219

>  <data_validity_description>  (109) 
None

>  <activity_id>  (109) 
1508943

>  <standard_type>  (109) 
IC50

>  <target_chembl_id>  (109) 
CHEMBL217

>  <data_validity_comment>  (109) 
None

>  <published_value>  (109) 
55.4

>  <document_year>  (109) 
2005

>  <target_pref_name>  (109) 
Dopamine D2 receptor

>  <assay_chembl_id>  (109) 
CHEMBL827419

>  <standard_relation>  (109) 
=

>  <assay_description>  (109) 
Mitogenic stimulation or antagonism of 30 nM quinpirole-stimulated mitogenesis in CHO cells expressing human dopamine D2 receptor

>  <published_relation>  (109) 
=

>  <standard_value>  (109) 
55.4

>  <qudt_units>  (109) 
http://www.openphacts.org/units/Nanomolar

>  <target_tax_id>  (109) 
9606

>  <bao_label>  (109) 
cell-based format

>  <published_units>  (109) 
nM

>  <pchembl_value>  (109) 
7.26

>  <published_type>  (109) 
IC50

>  <activity_comment>  (109) 
None

$$$$

     RDKit          

 31 34  0  0  0  0  0  0  0  0999 V2000
    0.0000    0.0000    0.0000 Cl  0  0  0  0  0  0  0  0  0  0  0  0
    0.0000    0.0000    0.0000 C   0  0  0  0  0  0  0  0  0  0  0  0
    0.0000    0.0000    0.0000 C   0  0  0  0  0  0  0  0  0  0  0  0
    0.0000    0.0000    0.0000 C   0  0  0  0  0  0  0  0  0  0  0  0
    0.0000    0.0000    0.0000 C   0  0  0  0  0  0  0  0  0  0  0  0
    0.0000    0.0000    0.0000 C   0  0  0  0  0  0  0  0  0  0  0  0
    0.0000    0.0000    0.0000 N   0  0  0  0  0  0  0  0  0  0  0  0
    0.0000    0.0000    0.0000 C   0  0  0  0  0  0  0  0  0  0  0  0
    0.0000    0.0000    0.0000 C   0  0  0  0  0  0  0  0  0  0  0  0
    0.0000    0.0000    0.0000 N   0  0  0  0  0  0  0  0  0  0  0  0
    0.0000    0.0000    0.0000 C   0  0  0  0  0  0  0  0  0  0  0  0
    0.0000    0.0000    0.0000 C   0  0  0  0  0  0  0  0  0  0  0  0
    0.0000    0.0000    0.0000 C   0  0  0  0  0  0  0  0  0  0  0  0
    0.0000    0.0000    0.0000 C   0  0  0  0  0  0  0  0  0  0  0  0
    0.0000    0.0000    0.0000 N   0  0  0  0  0  0  0  0  0  0  0  0
    0.0000    0.0000    0.0000 C   0  0  0  0  0  0  0  0  0  0  0  0
    0.0000    0.0000    0.0000 O   0  0  0  0  0  0  0  0  0  0  0  0
    0.0000    0.0000    0.0000 C   0  0  0  0  0  0  0  0  0  0  0  0
    0.0000    0.0000    0.0000 C   0  0  0  0  0  0  0  0  0  0  0  0
    0.0000    0.0000    0.0000 N   0  0  0  0  0  0  0  0  0  0  0  0
    0.0000    0.0000    0.0000 C   0  0  0  0  0  0  0  0  0  0  0  0
    0.0000    0.0000    0.0000 C   0  0  0  0  0  0  0  0  0  0  0  0
    0.0000    0.0000    0.0000 C   0  0  0  0  0  0  0  0  0  0  0  0
    0.0000    0.0000    0.0000 C   0  0  0  0  0  0  0  0  0  0  0  0
    0.0000    0.0000    0.0000 C   0  0  0  0  0  0  0  0  0  0  0  0
    0.0000    0.0000    0.0000 C   0  0  0  0  0  0  0  0  0  0  0  0
    0.0000    0.0000    0.0000 N   0  0  0  0  0  0  0  0  0  0  0  0
    0.0000    0.0000    0.0000 C   0  0  0  0  0  0  0  0  0  0  0  0
    0.0000    0.0000    0.0000 C   0  0  0  0  0  0  0  0  0  0  0  0
    0.0000    0.0000    0.0000 C   0  0  0  0  0  0  0  0  0  0  0  0
    0.0000    0.0000    0.0000 Cl  0  0  0  0  0  0  0  0  0  0  0  0
  1  2  1  0
  2  3  2  0
  3  4  1  0
  4  5  2  0
  5  6  1  0
  6  7  1  0
  7  8  1  0
  8  9  1  0
  9 10  1  0
 10 11  1  0
 11 12  1  0
 12 13  1  0
 13 14  1  0
 14 15  1  0
 15 16  1  0
 16 17  2  0
 16 18  1  0
 18 19  2  0
 19 20  1  0
 20 21  2  0
 21 22  1  0
 22 23  2  0
 23 24  1  0
 24 25  2  0
 25 26  1  0
 26 27  2  0
 10 28  1  0
 28 29  1  0
  6 30  2  0
 30 31  1  0
 30  2  1  0
 29  7  1  0
 27 18  1  0
 26 21  1  0
M  END
>  <pIC50>  (110) 
7.12

>  <ChEMBL_ID>  (110) 
CHEMBL262724

>  <document_journal>  (110) 
J. Med. Chem.

>  <bao_endpoint>  (110) 
BAO_0000190

>  <potential_duplicate>  (110) 
False

>  <uo_units>  (110) 
UO_0000065

>  <canonical_smiles>  (110) 
Clc1cccc(N2CCN(CCCCNC(=O)c3cnc4ccccc4n3)CC2)c1Cl

>  <parent_molecule_chembl_id>  (110) 
CHEMBL262724

>  <assay_type>  (110) 
F

>  <src_id>  (110) 
1

>  <ligand_efficiency>  (110) 
None

>  <standard_flag>  (110) 
True

>  <molecule_chembl_id>  (110) 
CHEMBL262724

>  <target_organism>  (110) 
Homo sapiens

>  <standard_units>  (110) 
nM

>  <record_id>  (110) 
391352

>  <document_chembl_id>  (110) 
CHEMBL1139520

>  <bao_format>  (110) 
BAO_0000219

>  <data_validity_description>  (110) 
None

>  <activity_id>  (110) 
1508958

>  <standard_type>  (110) 
IC50

>  <target_chembl_id>  (110) 
CHEMBL217

>  <data_validity_comment>  (110) 
None

>  <published_value>  (110) 
76.7

>  <document_year>  (110) 
2005

>  <target_pref_name>  (110) 
Dopamine D2 receptor

>  <assay_chembl_id>  (110) 
CHEMBL827419

>  <standard_relation>  (110) 
=

>  <assay_description>  (110) 
Mitogenic stimulation or antagonism of 30 nM quinpirole-stimulated mitogenesis in CHO cells expressing human dopamine D2 receptor

>  <published_relation>  (110) 
=

>  <standard_value>  (110) 
76.7

>  <qudt_units>  (110) 
http://www.openphacts.org/units/Nanomolar

>  <target_tax_id>  (110) 
9606

>  <bao_label>  (110) 
cell-based format

>  <published_units>  (110) 
nM

>  <pchembl_value>  (110) 
7.12

>  <published_type>  (110) 
IC50

>  <activity_comment>  (110) 
None

$$$$

     RDKit          

 33 36  0  0  0  0  0  0  0  0999 V2000
    0.0000    0.0000    0.0000 Cl  0  0  0  0  0  0  0  0  0  0  0  0
    0.0000    0.0000    0.0000 C   0  0  0  0  0  0  0  0  0  0  0  0
    0.0000    0.0000    0.0000 C   0  0  0  0  0  0  0  0  0  0  0  0
    0.0000    0.0000    0.0000 C   0  0  0  0  0  0  0  0  0  0  0  0
    0.0000    0.0000    0.0000 C   0  0  0  0  0  0  0  0  0  0  0  0
    0.0000    0.0000    0.0000 C   0  0  0  0  0  0  0  0  0  0  0  0
    0.0000    0.0000    0.0000 N   0  0  0  0  0  0  0  0  0  0  0  0
    0.0000    0.0000    0.0000 C   0  0  0  0  0  0  0  0  0  0  0  0
    0.0000    0.0000    0.0000 C   0  0  0  0  0  0  0  0  0  0  0  0
    0.0000    0.0000    0.0000 N   0  0  0  0  0  0  0  0  0  0  0  0
    0.0000    0.0000    0.0000 C   0  0  0  0  0  0  0  0  0  0  0  0
    0.0000    0.0000    0.0000 C   0  0  0  0  0  0  0  0  0  0  0  0
    0.0000    0.0000    0.0000 C   0  0  0  0  0  0  0  0  0  0  0  0
    0.0000    0.0000    0.0000 C   0  0  0  0  0  0  0  0  0  0  0  0
    0.0000    0.0000    0.0000 N   0  0  0  0  0  0  0  0  0  0  0  0
    0.0000    0.0000    0.0000 C   0  0  0  0  0  0  0  0  0  0  0  0
    0.0000    0.0000    0.0000 O   0  0  0  0  0  0  0  0  0  0  0  0
    0.0000    0.0000    0.0000 C   0  0  0  0  0  0  0  0  0  0  0  0
    0.0000    0.0000    0.0000 C   0  0  0  0  0  0  0  0  0  0  0  0
    0.0000    0.0000    0.0000 C   0  0  0  0  0  0  0  0  0  0  0  0
    0.0000    0.0000    0.0000 C   0  0  0  0  0  0  0  0  0  0  0  0
    0.0000    0.0000    0.0000 C   0  0  0  0  0  0  0  0  0  0  0  0
    0.0000    0.0000    0.0000 C   0  0  0  0  0  0  0  0  0  0  0  0
    0.0000    0.0000    0.0000 C   0  0  0  0  0  0  0  0  0  0  0  0
    0.0000    0.0000    0.0000 C   0  0  0  0  0  0  0  0  0  0  0  0
    0.0000    0.0000    0.0000 C   0  0  0  0  0  0  0  0  0  0  0  0
    0.0000    0.0000    0.0000 C   0  0  0  0  0  0  0  0  0  0  0  0
    0.0000    0.0000    0.0000 C   0  0  0  0  0  0  0  0  0  0  0  0
    0.0000    0.0000    0.0000 N   0  0  0  0  0  0  0  0  0  0  0  0
    0.0000    0.0000    0.0000 C   0  0  0  0  0  0  0  0  0  0  0  0
    0.0000    0.0000    0.0000 C   0  0  0  0  0  0  0  0  0  0  0  0
    0.0000    0.0000    0.0000 C   0  0  0  0  0  0  0  0  0  0  0  0
    0.0000    0.0000    0.0000 Cl  0  0  0  0  0  0  0  0  0  0  0  0
  1  2  1  0
  2  3  2  0
  3  4  1  0
  4  5  2  0
  5  6  1  0
  6  7  1  0
  7  8  1  0
  8  9  1  0
  9 10  1  0
 10 11  1  0
 11 12  1  0
 12 13  1  0
 13 14  1  0
 14 15  1  0
 15 16  1  0
 16 17  2  0
 16 18  1  0
 18 19  2  0
 19 20  1  0
 20 21  2  0
 21 22  1  0
 22 23  2  0
 21 24  1  0
 24 25  2  0
 25 26  1  0
 26 27  2  0
 27 28  1  0
 28 29  2  0
 10 30  1  0
 30 31  1  0
  6 32  2  0
 32 33  1  0
 32  2  1  0
 31  7  1  0
 23 18  1  0
 29 24  1  0
M  END
>  <pIC50>  (111) 
7.04

>  <ChEMBL_ID>  (111) 
CHEMBL69451

>  <document_journal>  (111) 
J. Med. Chem.

>  <bao_endpoint>  (111) 
BAO_0000190

>  <potential_duplicate>  (111) 
False

>  <uo_units>  (111) 
UO_0000065

>  <canonical_smiles>  (111) 
Clc1cccc(N2CCN(CCCCNC(=O)c3ccc(cc3)c4ccccn4)CC2)c1Cl

>  <parent_molecule_chembl_id>  (111) 
CHEMBL69451

>  <assay_type>  (111) 
F

>  <src_id>  (111) 
1

>  <ligand_efficiency>  (111) 
None

>  <standard_flag>  (111) 
True

>  <molecule_chembl_id>  (111) 
CHEMBL69451

>  <target_organism>  (111) 
Homo sapiens

>  <standard_units>  (111) 
nM

>  <record_id>  (111) 
391004

>  <document_chembl_id>  (111) 
CHEMBL1139520

>  <bao_format>  (111) 
BAO_0000219

>  <data_validity_description>  (111) 
None

>  <activity_id>  (111) 
1509077

>  <standard_type>  (111) 
IC50

>  <target_chembl_id>  (111) 
CHEMBL217

>  <data_validity_comment>  (111) 
None

>  <published_value>  (111) 
92

>  <document_year>  (111) 
2005

>  <target_pref_name>  (111) 
Dopamine D2 receptor

>  <assay_chembl_id>  (111) 
CHEMBL827419

>  <standard_relation>  (111) 
=

>  <assay_description>  (111) 
Mitogenic stimulation or antagonism of 30 nM quinpirole-stimulated mitogenesis in CHO cells expressing human dopamine D2 receptor

>  <published_relation>  (111) 
=

>  <standard_value>  (111) 
92

>  <qudt_units>  (111) 
http://www.openphacts.org/units/Nanomolar

>  <target_tax_id>  (111) 
9606

>  <bao_label>  (111) 
cell-based format

>  <published_units>  (111) 
nM

>  <pchembl_value>  (111) 
7.04

>  <published_type>  (111) 
IC50

>  <activity_comment>  (111) 
None

$$$$

     RDKit          

 27 29  0  0  0  0  0  0  0  0999 V2000
    0.0000    0.0000    0.0000 Cl  0  0  0  0  0  0  0  0  0  0  0  0
    0.0000    0.0000    0.0000 C   0  0  0  0  0  0  0  0  0  0  0  0
    0.0000    0.0000    0.0000 C   0  0  0  0  0  0  0  0  0  0  0  0
    0.0000    0.0000    0.0000 C   0  0  0  0  0  0  0  0  0  0  0  0
    0.0000    0.0000    0.0000 C   0  0  0  0  0  0  0  0  0  0  0  0
    0.0000    0.0000    0.0000 C   0  0  0  0  0  0  0  0  0  0  0  0
    0.0000    0.0000    0.0000 N   0  0  0  0  0  0  0  0  0  0  0  0
    0.0000    0.0000    0.0000 C   0  0  0  0  0  0  0  0  0  0  0  0
    0.0000    0.0000    0.0000 C   0  0  0  0  0  0  0  0  0  0  0  0
    0.0000    0.0000    0.0000 N   0  0  0  0  0  0  0  0  0  0  0  0
    0.0000    0.0000    0.0000 C   0  0  0  0  0  0  0  0  0  0  0  0
    0.0000    0.0000    0.0000 C   0  0  0  0  0  0  0  0  0  0  0  0
    0.0000    0.0000    0.0000 C   0  0  0  0  0  0  0  0  0  0  0  0
    0.0000    0.0000    0.0000 C   0  0  0  0  0  0  0  0  0  0  0  0
    0.0000    0.0000    0.0000 N   0  0  0  0  0  0  0  0  0  0  0  0
    0.0000    0.0000    0.0000 C   0  0  0  0  0  0  0  0  0  0  0  0
    0.0000    0.0000    0.0000 O   0  0  0  0  0  0  0  0  0  0  0  0
    0.0000    0.0000    0.0000 C   0  0  0  0  0  0  0  0  0  0  0  0
    0.0000    0.0000    0.0000 C   0  0  0  0  0  0  0  0  0  0  0  0
    0.0000    0.0000    0.0000 C   0  0  0  0  0  0  0  0  0  0  0  0
    0.0000    0.0000    0.0000 C   0  0  0  0  0  0  0  0  0  0  0  0
    0.0000    0.0000    0.0000 C   0  0  0  0  0  0  0  0  0  0  0  0
    0.0000    0.0000    0.0000 C   0  0  0  0  0  0  0  0  0  0  0  0
    0.0000    0.0000    0.0000 C   0  0  0  0  0  0  0  0  0  0  0  0
    0.0000    0.0000    0.0000 C   0  0  0  0  0  0  0  0  0  0  0  0
    0.0000    0.0000    0.0000 C   0  0  0  0  0  0  0  0  0  0  0  0
    0.0000    0.0000    0.0000 Cl  0  0  0  0  0  0  0  0  0  0  0  0
  1  2  1  0
  2  3  2  0
  3  4  1  0
  4  5  2  0
  5  6  1  0
  6  7  1  0
  7  8  1  0
  8  9  1  0
  9 10  1  0
 10 11  1  0
 11 12  1  0
 12 13  2  0
 13 14  1  0
 14 15  1  0
 15 16  1  0
 16 17  2  0
 16 18  1  0
 18 19  2  0
 19 20  1  0
 20 21  2  0
 21 22  1  0
 22 23  2  0
 10 24  1  0
 24 25  1  0
  6 26  2  0
 26 27  1  0
 26  2  1  0
 25  7  1  0
 23 18  1  0
M  END
>  <pIC50>  (112) 
7.79

>  <ChEMBL_ID>  (112) 
CHEMBL71327

>  <document_journal>  (112) 
J. Med. Chem.

>  <bao_endpoint>  (112) 
BAO_0000190

>  <potential_duplicate>  (112) 
False

>  <uo_units>  (112) 
UO_0000065

>  <canonical_smiles>  (112) 
Clc1cccc(N2CCN(C\C=C\CNC(=O)c3ccccc3)CC2)c1Cl

>  <parent_molecule_chembl_id>  (112) 
CHEMBL71327

>  <assay_type>  (112) 
F

>  <src_id>  (112) 
1

>  <ligand_efficiency>  (112) 
None

>  <standard_flag>  (112) 
True

>  <molecule_chembl_id>  (112) 
CHEMBL71327

>  <target_organism>  (112) 
Homo sapiens

>  <standard_units>  (112) 
nM

>  <record_id>  (112) 
391029

>  <document_chembl_id>  (112) 
CHEMBL1139520

>  <bao_format>  (112) 
BAO_0000219

>  <data_validity_description>  (112) 
None

>  <activity_id>  (112) 
1509093

>  <standard_type>  (112) 
IC50

>  <target_chembl_id>  (112) 
CHEMBL217

>  <data_validity_comment>  (112) 
None

>  <published_value>  (112) 
16.1

>  <document_year>  (112) 
2005

>  <target_pref_name>  (112) 
Dopamine D2 receptor

>  <assay_chembl_id>  (112) 
CHEMBL827419

>  <standard_relation>  (112) 
=

>  <assay_description>  (112) 
Mitogenic stimulation or antagonism of 30 nM quinpirole-stimulated mitogenesis in CHO cells expressing human dopamine D2 receptor

>  <published_relation>  (112) 
=

>  <standard_value>  (112) 
16.1

>  <qudt_units>  (112) 
http://www.openphacts.org/units/Nanomolar

>  <target_tax_id>  (112) 
9606

>  <bao_label>  (112) 
cell-based format

>  <published_units>  (112) 
nM

>  <pchembl_value>  (112) 
7.79

>  <published_type>  (112) 
IC50

>  <activity_comment>  (112) 
None

$$$$

     RDKit          

 27 29  0  0  0  0  0  0  0  0999 V2000
    0.0000    0.0000    0.0000 Cl  0  0  0  0  0  0  0  0  0  0  0  0
    0.0000    0.0000    0.0000 C   0  0  0  0  0  0  0  0  0  0  0  0
    0.0000    0.0000    0.0000 C   0  0  0  0  0  0  0  0  0  0  0  0
    0.0000    0.0000    0.0000 C   0  0  0  0  0  0  0  0  0  0  0  0
    0.0000    0.0000    0.0000 C   0  0  0  0  0  0  0  0  0  0  0  0
    0.0000    0.0000    0.0000 C   0  0  0  0  0  0  0  0  0  0  0  0
    0.0000    0.0000    0.0000 N   0  0  0  0  0  0  0  0  0  0  0  0
    0.0000    0.0000    0.0000 C   0  0  0  0  0  0  0  0  0  0  0  0
    0.0000    0.0000    0.0000 C   0  0  0  0  0  0  0  0  0  0  0  0
    0.0000    0.0000    0.0000 N   0  0  0  0  0  0  0  0  0  0  0  0
    0.0000    0.0000    0.0000 C   0  0  0  0  0  0  0  0  0  0  0  0
    0.0000    0.0000    0.0000 C   0  0  0  0  0  0  0  0  0  0  0  0
    0.0000    0.0000    0.0000 C   0  0  0  0  0  0  0  0  0  0  0  0
    0.0000    0.0000    0.0000 C   0  0  0  0  0  0  0  0  0  0  0  0
    0.0000    0.0000    0.0000 N   0  0  0  0  0  0  0  0  0  0  0  0
    0.0000    0.0000    0.0000 C   0  0  0  0  0  0  0  0  0  0  0  0
    0.0000    0.0000    0.0000 O   0  0  0  0  0  0  0  0  0  0  0  0
    0.0000    0.0000    0.0000 C   0  0  0  0  0  0  0  0  0  0  0  0
    0.0000    0.0000    0.0000 C   0  0  0  0  0  0  0  0  0  0  0  0
    0.0000    0.0000    0.0000 C   0  0  0  0  0  0  0  0  0  0  0  0
    0.0000    0.0000    0.0000 C   0  0  0  0  0  0  0  0  0  0  0  0
    0.0000    0.0000    0.0000 C   0  0  0  0  0  0  0  0  0  0  0  0
    0.0000    0.0000    0.0000 C   0  0  0  0  0  0  0  0  0  0  0  0
    0.0000    0.0000    0.0000 C   0  0  0  0  0  0  0  0  0  0  0  0
    0.0000    0.0000    0.0000 C   0  0  0  0  0  0  0  0  0  0  0  0
    0.0000    0.0000    0.0000 C   0  0  0  0  0  0  0  0  0  0  0  0
    0.0000    0.0000    0.0000 Cl  0  0  0  0  0  0  0  0  0  0  0  0
  1  2  1  0
  2  3  2  0
  3  4  1  0
  4  5  2  0
  5  6  1  0
  6  7  1  0
  7  8  1  0
  8  9  1  0
  9 10  1  0
 10 11  1  0
 11 12  1  0
 12 13  2  0
 13 14  1  0
 14 15  1  0
 15 16  1  0
 16 17  2  0
 16 18  1  0
 18 19  2  0
 19 20  1  0
 20 21  2  0
 21 22  1  0
 22 23  2  0
 10 24  1  0
 24 25  1  0
  6 26  2  0
 26 27  1  0
 26  2  1  0
 25  7  1  0
 23 18  1  0
M  END
>  <pIC50>  (113) 
8.13

>  <ChEMBL_ID>  (113) 
CHEMBL71865

>  <document_journal>  (113) 
J. Med. Chem.

>  <bao_endpoint>  (113) 
BAO_0000190

>  <potential_duplicate>  (113) 
False

>  <uo_units>  (113) 
UO_0000065

>  <canonical_smiles>  (113) 
Clc1cccc(N2CCN(C\C=C/CNC(=O)c3ccccc3)CC2)c1Cl

>  <parent_molecule_chembl_id>  (113) 
CHEMBL71865

>  <assay_type>  (113) 
F

>  <src_id>  (113) 
1

>  <ligand_efficiency>  (113) 
None

>  <standard_flag>  (113) 
True

>  <molecule_chembl_id>  (113) 
CHEMBL71865

>  <target_organism>  (113) 
Homo sapiens

>  <standard_units>  (113) 
nM

>  <record_id>  (113) 
391092

>  <document_chembl_id>  (113) 
CHEMBL1139520

>  <bao_format>  (113) 
BAO_0000219

>  <data_validity_description>  (113) 
None

>  <activity_id>  (113) 
1509275

>  <standard_type>  (113) 
IC50

>  <target_chembl_id>  (113) 
CHEMBL217

>  <data_validity_comment>  (113) 
None

>  <published_value>  (113) 
7.49

>  <document_year>  (113) 
2005

>  <target_pref_name>  (113) 
Dopamine D2 receptor

>  <assay_chembl_id>  (113) 
CHEMBL827419

>  <standard_relation>  (113) 
=

>  <assay_description>  (113) 
Mitogenic stimulation or antagonism of 30 nM quinpirole-stimulated mitogenesis in CHO cells expressing human dopamine D2 receptor

>  <published_relation>  (113) 
=

>  <standard_value>  (113) 
7.49

>  <qudt_units>  (113) 
http://www.openphacts.org/units/Nanomolar

>  <target_tax_id>  (113) 
9606

>  <bao_label>  (113) 
cell-based format

>  <published_units>  (113) 
nM

>  <pchembl_value>  (113) 
8.13

>  <published_type>  (113) 
IC50

>  <activity_comment>  (113) 
None

$$$$

     RDKit          

 28 30  0  0  0  0  0  0  0  0999 V2000
    0.0000    0.0000    0.0000 Cl  0  0  0  0  0  0  0  0  0  0  0  0
    0.0000    0.0000    0.0000 C   0  0  0  0  0  0  0  0  0  0  0  0
    0.0000    0.0000    0.0000 C   0  0  0  0  0  0  0  0  0  0  0  0
    0.0000    0.0000    0.0000 C   0  0  0  0  0  0  0  0  0  0  0  0
    0.0000    0.0000    0.0000 C   0  0  0  0  0  0  0  0  0  0  0  0
    0.0000    0.0000    0.0000 C   0  0  0  0  0  0  0  0  0  0  0  0
    0.0000    0.0000    0.0000 N   0  0  0  0  0  0  0  0  0  0  0  0
    0.0000    0.0000    0.0000 C   0  0  0  0  0  0  0  0  0  0  0  0
    0.0000    0.0000    0.0000 C   0  0  0  0  0  0  0  0  0  0  0  0
    0.0000    0.0000    0.0000 N   0  0  0  0  0  0  0  0  0  0  0  0
    0.0000    0.0000    0.0000 C   0  0  0  0  0  0  0  0  0  0  0  0
    0.0000    0.0000    0.0000 C   0  0  0  0  0  0  0  0  0  0  0  0
    0.0000    0.0000    0.0000 C   0  0  0  0  0  0  0  0  0  0  0  0
    0.0000    0.0000    0.0000 C   0  0  0  0  0  0  0  0  0  0  0  0
    0.0000    0.0000    0.0000 N   0  0  0  0  0  0  0  0  0  0  0  0
    0.0000    0.0000    0.0000 C   0  0  0  0  0  0  0  0  0  0  0  0
    0.0000    0.0000    0.0000 O   0  0  0  0  0  0  0  0  0  0  0  0
    0.0000    0.0000    0.0000 C   0  0  0  0  0  0  0  0  0  0  0  0
    0.0000    0.0000    0.0000 C   0  0  0  0  0  0  0  0  0  0  0  0
    0.0000    0.0000    0.0000 C   0  0  0  0  0  0  0  0  0  0  0  0
    0.0000    0.0000    0.0000 C   0  0  0  0  0  0  0  0  0  0  0  0
    0.0000    0.0000    0.0000 I   0  0  0  0  0  0  0  0  0  0  0  0
    0.0000    0.0000    0.0000 C   0  0  0  0  0  0  0  0  0  0  0  0
    0.0000    0.0000    0.0000 C   0  0  0  0  0  0  0  0  0  0  0  0
    0.0000    0.0000    0.0000 C   0  0  0  0  0  0  0  0  0  0  0  0
    0.0000    0.0000    0.0000 C   0  0  0  0  0  0  0  0  0  0  0  0
    0.0000    0.0000    0.0000 C   0  0  0  0  0  0  0  0  0  0  0  0
    0.0000    0.0000    0.0000 Cl  0  0  0  0  0  0  0  0  0  0  0  0
  1  2  1  0
  2  3  2  0
  3  4  1  0
  4  5  2  0
  5  6  1  0
  6  7  1  0
  7  8  1  0
  8  9  1  0
  9 10  1  0
 10 11  1  0
 11 12  1  0
 12 13  2  0
 13 14  1  0
 14 15  1  0
 15 16  1  0
 16 17  2  0
 16 18  1  0
 18 19  2  0
 19 20  1  0
 20 21  2  0
 21 22  1  0
 21 23  1  0
 23 24  2  0
 10 25  1  0
 25 26  1  0
  6 27  2  0
 27 28  1  0
 27  2  1  0
 26  7  1  0
 24 18  1  0
M  END
>  <pIC50>  (114) 
6.79

>  <ChEMBL_ID>  (114) 
CHEMBL180060

>  <document_journal>  (114) 
J. Med. Chem.

>  <bao_endpoint>  (114) 
BAO_0000190

>  <potential_duplicate>  (114) 
False

>  <uo_units>  (114) 
UO_0000065

>  <canonical_smiles>  (114) 
Clc1cccc(N2CCN(C\C=C\CNC(=O)c3ccc(I)cc3)CC2)c1Cl

>  <parent_molecule_chembl_id>  (114) 
CHEMBL180060

>  <assay_type>  (114) 
F

>  <src_id>  (114) 
1

>  <ligand_efficiency>  (114) 
None

>  <standard_flag>  (114) 
True

>  <molecule_chembl_id>  (114) 
CHEMBL180060

>  <target_organism>  (114) 
Homo sapiens

>  <standard_units>  (114) 
nM

>  <record_id>  (114) 
391093

>  <document_chembl_id>  (114) 
CHEMBL1139520

>  <bao_format>  (114) 
BAO_0000219

>  <data_validity_description>  (114) 
None

>  <activity_id>  (114) 
1509424

>  <standard_type>  (114) 
IC50

>  <target_chembl_id>  (114) 
CHEMBL217

>  <data_validity_comment>  (114) 
None

>  <published_value>  (114) 
162

>  <document_year>  (114) 
2005

>  <target_pref_name>  (114) 
Dopamine D2 receptor

>  <assay_chembl_id>  (114) 
CHEMBL827419

>  <standard_relation>  (114) 
=

>  <assay_description>  (114) 
Mitogenic stimulation or antagonism of 30 nM quinpirole-stimulated mitogenesis in CHO cells expressing human dopamine D2 receptor

>  <published_relation>  (114) 
=

>  <standard_value>  (114) 
162

>  <qudt_units>  (114) 
http://www.openphacts.org/units/Nanomolar

>  <target_tax_id>  (114) 
9606

>  <bao_label>  (114) 
cell-based format

>  <published_units>  (114) 
nM

>  <pchembl_value>  (114) 
6.79

>  <published_type>  (114) 
IC50

>  <activity_comment>  (114) 
None

$$$$

     RDKit          

 29 31  0  0  0  0  0  0  0  0999 V2000
    0.0000    0.0000    0.0000 C   0  0  0  0  0  0  0  0  0  0  0  0
    0.0000    0.0000    0.0000 O   0  0  0  0  0  0  0  0  0  0  0  0
    0.0000    0.0000    0.0000 C   0  0  0  0  0  0  0  0  0  0  0  0
    0.0000    0.0000    0.0000 C   0  0  0  0  0  0  0  0  0  0  0  0
    0.0000    0.0000    0.0000 C   0  0  0  0  0  0  0  0  0  0  0  0
    0.0000    0.0000    0.0000 C   0  0  0  0  0  0  0  0  0  0  0  0
    0.0000    0.0000    0.0000 C   0  0  0  0  0  0  0  0  0  0  0  0
    0.0000    0.0000    0.0000 C   0  0  0  0  0  0  0  0  0  0  0  0
    0.0000    0.0000    0.0000 C   0  0  0  0  0  0  0  0  0  0  0  0
    0.0000    0.0000    0.0000 O   0  0  0  0  0  0  0  0  0  0  0  0
    0.0000    0.0000    0.0000 N   0  0  0  0  0  0  0  0  0  0  0  0
    0.0000    0.0000    0.0000 C   0  0  0  0  0  0  0  0  0  0  0  0
    0.0000    0.0000    0.0000 C   0  0  0  0  0  0  0  0  0  0  0  0
    0.0000    0.0000    0.0000 C   0  0  0  0  0  0  0  0  0  0  0  0
    0.0000    0.0000    0.0000 C   0  0  0  0  0  0  0  0  0  0  0  0
    0.0000    0.0000    0.0000 N   0  0  0  0  0  0  0  0  0  0  0  0
    0.0000    0.0000    0.0000 C   0  0  0  0  0  0  0  0  0  0  0  0
    0.0000    0.0000    0.0000 C   0  0  0  0  0  0  0  0  0  0  0  0
    0.0000    0.0000    0.0000 N   0  0  0  0  0  0  0  0  0  0  0  0
    0.0000    0.0000    0.0000 C   0  0  0  0  0  0  0  0  0  0  0  0
    0.0000    0.0000    0.0000 C   0  0  0  0  0  0  0  0  0  0  0  0
    0.0000    0.0000    0.0000 C   0  0  0  0  0  0  0  0  0  0  0  0
    0.0000    0.0000    0.0000 C   0  0  0  0  0  0  0  0  0  0  0  0
    0.0000    0.0000    0.0000 C   0  0  0  0  0  0  0  0  0  0  0  0
    0.0000    0.0000    0.0000 C   0  0  0  0  0  0  0  0  0  0  0  0
    0.0000    0.0000    0.0000 C   0  0  0  0  0  0  0  0  0  0  0  0
    0.0000    0.0000    0.0000 Cl  0  0  0  0  0  0  0  0  0  0  0  0
    0.0000    0.0000    0.0000 C   0  0  0  0  0  0  0  0  0  0  0  0
    0.0000    0.0000    0.0000 Cl  0  0  0  0  0  0  0  0  0  0  0  0
  1  2  1  0
  2  3  1  0
  3  4  2  0
  4  5  1  0
  5  6  2  0
  6  7  1  0
  7  8  2  0
  6  9  1  0
  9 10  2  0
  9 11  1  0
 11 12  1  0
 12 13  1  0
 13 14  2  0
 14 15  1  0
 15 16  1  0
 16 17  1  0
 17 18  1  0
 18 19  1  0
 19 20  1  0
 20 21  1  0
 19 22  1  0
 22 23  2  0
 23 24  1  0
 24 25  2  0
 25 26  1  0
 26 27  1  0
 26 28  2  0
 28 29  1  0
  8  3  1  0
 21 16  1  0
 28 22  1  0
M  END
>  <pIC50>  (115) 
7.21

>  <ChEMBL_ID>  (115) 
CHEMBL370713

>  <document_journal>  (115) 
J. Med. Chem.

>  <bao_endpoint>  (115) 
BAO_0000190

>  <potential_duplicate>  (115) 
False

>  <uo_units>  (115) 
UO_0000065

>  <canonical_smiles>  (115) 
COc1ccc(cc1)C(=O)NC\C=C\CN2CCN(CC2)c3cccc(Cl)c3Cl

>  <parent_molecule_chembl_id>  (115) 
CHEMBL370713

>  <assay_type>  (115) 
F

>  <src_id>  (115) 
1

>  <ligand_efficiency>  (115) 
None

>  <standard_flag>  (115) 
True

>  <molecule_chembl_id>  (115) 
CHEMBL370713

>  <target_organism>  (115) 
Homo sapiens

>  <standard_units>  (115) 
nM

>  <record_id>  (115) 
391122

>  <document_chembl_id>  (115) 
CHEMBL1139520

>  <bao_format>  (115) 
BAO_0000219

>  <data_validity_description>  (115) 
None

>  <activity_id>  (115) 
1509433

>  <standard_type>  (115) 
IC50

>  <target_chembl_id>  (115) 
CHEMBL217

>  <data_validity_comment>  (115) 
None

>  <published_value>  (115) 
61.8

>  <document_year>  (115) 
2005

>  <target_pref_name>  (115) 
Dopamine D2 receptor

>  <assay_chembl_id>  (115) 
CHEMBL827419

>  <standard_relation>  (115) 
=

>  <assay_description>  (115) 
Mitogenic stimulation or antagonism of 30 nM quinpirole-stimulated mitogenesis in CHO cells expressing human dopamine D2 receptor

>  <published_relation>  (115) 
=

>  <standard_value>  (115) 
61.8

>  <qudt_units>  (115) 
http://www.openphacts.org/units/Nanomolar

>  <target_tax_id>  (115) 
9606

>  <bao_label>  (115) 
cell-based format

>  <published_units>  (115) 
nM

>  <pchembl_value>  (115) 
7.21

>  <published_type>  (115) 
IC50

>  <activity_comment>  (115) 
None

$$$$

     RDKit          

 30 32  0  0  0  0  0  0  0  0999 V2000
    0.0000    0.0000    0.0000 O   0  0  0  0  0  0  0  0  0  0  0  0
    0.0000    0.0000    0.0000 N   0  0  0  0  0  0  0  0  0  0  0  0
    0.0000    0.0000    0.0000 O   0  0  0  0  0  0  0  0  0  0  0  0
    0.0000    0.0000    0.0000 C   0  0  0  0  0  0  0  0  0  0  0  0
    0.0000    0.0000    0.0000 C   0  0  0  0  0  0  0  0  0  0  0  0
    0.0000    0.0000    0.0000 C   0  0  0  0  0  0  0  0  0  0  0  0
    0.0000    0.0000    0.0000 C   0  0  0  0  0  0  0  0  0  0  0  0
    0.0000    0.0000    0.0000 C   0  0  0  0  0  0  0  0  0  0  0  0
    0.0000    0.0000    0.0000 C   0  0  0  0  0  0  0  0  0  0  0  0
    0.0000    0.0000    0.0000 C   0  0  0  0  0  0  0  0  0  0  0  0
    0.0000    0.0000    0.0000 O   0  0  0  0  0  0  0  0  0  0  0  0
    0.0000    0.0000    0.0000 N   0  0  0  0  0  0  0  0  0  0  0  0
    0.0000    0.0000    0.0000 C   0  0  0  0  0  0  0  0  0  0  0  0
    0.0000    0.0000    0.0000 C   0  0  0  0  0  0  0  0  0  0  0  0
    0.0000    0.0000    0.0000 C   0  0  0  0  0  0  0  0  0  0  0  0
    0.0000    0.0000    0.0000 C   0  0  0  0  0  0  0  0  0  0  0  0
    0.0000    0.0000    0.0000 N   0  0  0  0  0  0  0  0  0  0  0  0
    0.0000    0.0000    0.0000 C   0  0  0  0  0  0  0  0  0  0  0  0
    0.0000    0.0000    0.0000 C   0  0  0  0  0  0  0  0  0  0  0  0
    0.0000    0.0000    0.0000 N   0  0  0  0  0  0  0  0  0  0  0  0
    0.0000    0.0000    0.0000 C   0  0  0  0  0  0  0  0  0  0  0  0
    0.0000    0.0000    0.0000 C   0  0  0  0  0  0  0  0  0  0  0  0
    0.0000    0.0000    0.0000 C   0  0  0  0  0  0  0  0  0  0  0  0
    0.0000    0.0000    0.0000 C   0  0  0  0  0  0  0  0  0  0  0  0
    0.0000    0.0000    0.0000 C   0  0  0  0  0  0  0  0  0  0  0  0
    0.0000    0.0000    0.0000 C   0  0  0  0  0  0  0  0  0  0  0  0
    0.0000    0.0000    0.0000 C   0  0  0  0  0  0  0  0  0  0  0  0
    0.0000    0.0000    0.0000 Cl  0  0  0  0  0  0  0  0  0  0  0  0
    0.0000    0.0000    0.0000 C   0  0  0  0  0  0  0  0  0  0  0  0
    0.0000    0.0000    0.0000 Cl  0  0  0  0  0  0  0  0  0  0  0  0
  1  2  1  0
  2  3  2  0
  2  4  1  0
  4  5  2  0
  5  6  1  0
  6  7  2  0
  7  8  1  0
  8  9  2  0
  7 10  1  0
 10 11  2  0
 10 12  1  0
 12 13  1  0
 13 14  1  0
 14 15  2  0
 15 16  1  0
 16 17  1  0
 17 18  1  0
 18 19  1  0
 19 20  1  0
 20 21  1  0
 21 22  1  0
 20 23  1  0
 23 24  2  0
 24 25  1  0
 25 26  2  0
 26 27  1  0
 27 28  1  0
 27 29  2  0
 29 30  1  0
  9  4  1  0
 22 17  1  0
 29 23  1  0
M  CHG  2   1  -1   2   1
M  END
>  <pIC50>  (116) 
7.86

>  <ChEMBL_ID>  (116) 
CHEMBL194493

>  <document_journal>  (116) 
J. Med. Chem.

>  <bao_endpoint>  (116) 
BAO_0000190

>  <potential_duplicate>  (116) 
False

>  <uo_units>  (116) 
UO_0000065

>  <canonical_smiles>  (116) 
[O-][N+](=O)c1ccc(cc1)C(=O)NC\C=C\CN2CCN(CC2)c3cccc(Cl)c3Cl

>  <parent_molecule_chembl_id>  (116) 
CHEMBL194493

>  <assay_type>  (116) 
F

>  <src_id>  (116) 
1

>  <ligand_efficiency>  (116) 
None

>  <standard_flag>  (116) 
True

>  <molecule_chembl_id>  (116) 
CHEMBL194493

>  <target_organism>  (116) 
Homo sapiens

>  <standard_units>  (116) 
nM

>  <record_id>  (116) 
391143

>  <document_chembl_id>  (116) 
CHEMBL1139520

>  <bao_format>  (116) 
BAO_0000219

>  <data_validity_description>  (116) 
None

>  <activity_id>  (116) 
1509442

>  <standard_type>  (116) 
IC50

>  <target_chembl_id>  (116) 
CHEMBL217

>  <data_validity_comment>  (116) 
None

>  <published_value>  (116) 
13.8

>  <document_year>  (116) 
2005

>  <target_pref_name>  (116) 
Dopamine D2 receptor

>  <assay_chembl_id>  (116) 
CHEMBL827419

>  <standard_relation>  (116) 
=

>  <assay_description>  (116) 
Mitogenic stimulation or antagonism of 30 nM quinpirole-stimulated mitogenesis in CHO cells expressing human dopamine D2 receptor

>  <published_relation>  (116) 
=

>  <standard_value>  (116) 
13.8

>  <qudt_units>  (116) 
http://www.openphacts.org/units/Nanomolar

>  <target_tax_id>  (116) 
9606

>  <bao_label>  (116) 
cell-based format

>  <published_units>  (116) 
nM

>  <pchembl_value>  (116) 
7.86

>  <published_type>  (116) 
IC50

>  <activity_comment>  (116) 
None

$$$$

     RDKit          

 28 30  0  0  0  0  0  0  0  0999 V2000
    0.0000    0.0000    0.0000 O   0  0  0  0  0  0  0  0  0  0  0  0
    0.0000    0.0000    0.0000 C   0  0  0  0  0  0  0  0  0  0  0  0
    0.0000    0.0000    0.0000 C   0  0  0  0  0  0  0  0  0  0  0  0
    0.0000    0.0000    0.0000 C   0  0  0  0  0  0  0  0  0  0  0  0
    0.0000    0.0000    0.0000 C   0  0  0  0  0  0  0  0  0  0  0  0
    0.0000    0.0000    0.0000 C   0  0  0  0  0  0  0  0  0  0  0  0
    0.0000    0.0000    0.0000 C   0  0  0  0  0  0  0  0  0  0  0  0
    0.0000    0.0000    0.0000 C   0  0  0  0  0  0  0  0  0  0  0  0
    0.0000    0.0000    0.0000 O   0  0  0  0  0  0  0  0  0  0  0  0
    0.0000    0.0000    0.0000 N   0  0  0  0  0  0  0  0  0  0  0  0
    0.0000    0.0000    0.0000 C   0  0  0  0  0  0  0  0  0  0  0  0
    0.0000    0.0000    0.0000 C   0  0  0  0  0  0  0  0  0  0  0  0
    0.0000    0.0000    0.0000 C   0  0  0  0  0  0  0  0  0  0  0  0
    0.0000    0.0000    0.0000 C   0  0  0  0  0  0  0  0  0  0  0  0
    0.0000    0.0000    0.0000 N   0  0  0  0  0  0  0  0  0  0  0  0
    0.0000    0.0000    0.0000 C   0  0  0  0  0  0  0  0  0  0  0  0
    0.0000    0.0000    0.0000 C   0  0  0  0  0  0  0  0  0  0  0  0
    0.0000    0.0000    0.0000 N   0  0  0  0  0  0  0  0  0  0  0  0
    0.0000    0.0000    0.0000 C   0  0  0  0  0  0  0  0  0  0  0  0
    0.0000    0.0000    0.0000 C   0  0  0  0  0  0  0  0  0  0  0  0
    0.0000    0.0000    0.0000 C   0  0  0  0  0  0  0  0  0  0  0  0
    0.0000    0.0000    0.0000 C   0  0  0  0  0  0  0  0  0  0  0  0
    0.0000    0.0000    0.0000 C   0  0  0  0  0  0  0  0  0  0  0  0
    0.0000    0.0000    0.0000 C   0  0  0  0  0  0  0  0  0  0  0  0
    0.0000    0.0000    0.0000 C   0  0  0  0  0  0  0  0  0  0  0  0
    0.0000    0.0000    0.0000 Cl  0  0  0  0  0  0  0  0  0  0  0  0
    0.0000    0.0000    0.0000 C   0  0  0  0  0  0  0  0  0  0  0  0
    0.0000    0.0000    0.0000 Cl  0  0  0  0  0  0  0  0  0  0  0  0
  1  2  1  0
  2  3  2  0
  3  4  1  0
  4  5  2  0
  5  6  1  0
  6  7  2  0
  5  8  1  0
  8  9  2  0
  8 10  1  0
 10 11  1  0
 11 12  1  0
 12 13  2  0
 13 14  1  0
 14 15  1  0
 15 16  1  0
 16 17  1  0
 17 18  1  0
 18 19  1  0
 19 20  1  0
 18 21  1  0
 21 22  2  0
 22 23  1  0
 23 24  2  0
 24 25  1  0
 25 26  1  0
 25 27  2  0
 27 28  1  0
  7  2  1  0
 20 15  1  0
 27 21  1  0
M  END
>  <pIC50>  (117) 
8.08

>  <ChEMBL_ID>  (117) 
CHEMBL195057

>  <document_journal>  (117) 
J. Med. Chem.

>  <bao_endpoint>  (117) 
BAO_0000190

>  <potential_duplicate>  (117) 
False

>  <uo_units>  (117) 
UO_0000065

>  <canonical_smiles>  (117) 
Oc1ccc(cc1)C(=O)NC\C=C\CN2CCN(CC2)c3cccc(Cl)c3Cl

>  <parent_molecule_chembl_id>  (117) 
CHEMBL195057

>  <assay_type>  (117) 
F

>  <src_id>  (117) 
1

>  <ligand_efficiency>  (117) 
None

>  <standard_flag>  (117) 
True

>  <molecule_chembl_id>  (117) 
CHEMBL195057

>  <target_organism>  (117) 
Homo sapiens

>  <standard_units>  (117) 
nM

>  <record_id>  (117) 
391163

>  <document_chembl_id>  (117) 
CHEMBL1139520

>  <bao_format>  (117) 
BAO_0000219

>  <data_validity_description>  (117) 
None

>  <activity_id>  (117) 
1509451

>  <standard_type>  (117) 
IC50

>  <target_chembl_id>  (117) 
CHEMBL217

>  <data_validity_comment>  (117) 
None

>  <published_value>  (117) 
8.29

>  <document_year>  (117) 
2005

>  <target_pref_name>  (117) 
Dopamine D2 receptor

>  <assay_chembl_id>  (117) 
CHEMBL827419

>  <standard_relation>  (117) 
=

>  <assay_description>  (117) 
Mitogenic stimulation or antagonism of 30 nM quinpirole-stimulated mitogenesis in CHO cells expressing human dopamine D2 receptor

>  <published_relation>  (117) 
=

>  <standard_value>  (117) 
8.29

>  <qudt_units>  (117) 
http://www.openphacts.org/units/Nanomolar

>  <target_tax_id>  (117) 
9606

>  <bao_label>  (117) 
cell-based format

>  <published_units>  (117) 
nM

>  <pchembl_value>  (117) 
8.08

>  <published_type>  (117) 
IC50

>  <activity_comment>  (117) 
None

$$$$

     RDKit          

 30 33  0  0  0  0  0  0  0  0999 V2000
    0.0000    0.0000    0.0000 Cl  0  0  0  0  0  0  0  0  0  0  0  0
    0.0000    0.0000    0.0000 C   0  0  0  0  0  0  0  0  0  0  0  0
    0.0000    0.0000    0.0000 C   0  0  0  0  0  0  0  0  0  0  0  0
    0.0000    0.0000    0.0000 C   0  0  0  0  0  0  0  0  0  0  0  0
    0.0000    0.0000    0.0000 C   0  0  0  0  0  0  0  0  0  0  0  0
    0.0000    0.0000    0.0000 C   0  0  0  0  0  0  0  0  0  0  0  0
    0.0000    0.0000    0.0000 N   0  0  0  0  0  0  0  0  0  0  0  0
    0.0000    0.0000    0.0000 C   0  0  0  0  0  0  0  0  0  0  0  0
    0.0000    0.0000    0.0000 C   0  0  0  0  0  0  0  0  0  0  0  0
    0.0000    0.0000    0.0000 N   0  0  0  0  0  0  0  0  0  0  0  0
    0.0000    0.0000    0.0000 C   0  0  0  0  0  0  0  0  0  0  0  0
    0.0000    0.0000    0.0000 C   0  0  0  0  0  0  0  0  0  0  0  0
    0.0000    0.0000    0.0000 C   0  0  0  0  0  0  0  0  0  0  0  0
    0.0000    0.0000    0.0000 C   0  0  0  0  0  0  0  0  0  0  0  0
    0.0000    0.0000    0.0000 N   0  0  0  0  0  0  0  0  0  0  0  0
    0.0000    0.0000    0.0000 C   0  0  0  0  0  0  0  0  0  0  0  0
    0.0000    0.0000    0.0000 O   0  0  0  0  0  0  0  0  0  0  0  0
    0.0000    0.0000    0.0000 C   0  0  0  0  0  0  0  0  0  0  0  0
    0.0000    0.0000    0.0000 O   0  0  0  0  0  0  0  0  0  0  0  0
    0.0000    0.0000    0.0000 C   0  0  0  0  0  0  0  0  0  0  0  0
    0.0000    0.0000    0.0000 C   0  0  0  0  0  0  0  0  0  0  0  0
    0.0000    0.0000    0.0000 C   0  0  0  0  0  0  0  0  0  0  0  0
    0.0000    0.0000    0.0000 C   0  0  0  0  0  0  0  0  0  0  0  0
    0.0000    0.0000    0.0000 C   0  0  0  0  0  0  0  0  0  0  0  0
    0.0000    0.0000    0.0000 C   0  0  0  0  0  0  0  0  0  0  0  0
    0.0000    0.0000    0.0000 C   0  0  0  0  0  0  0  0  0  0  0  0
    0.0000    0.0000    0.0000 C   0  0  0  0  0  0  0  0  0  0  0  0
    0.0000    0.0000    0.0000 C   0  0  0  0  0  0  0  0  0  0  0  0
    0.0000    0.0000    0.0000 C   0  0  0  0  0  0  0  0  0  0  0  0
    0.0000    0.0000    0.0000 Cl  0  0  0  0  0  0  0  0  0  0  0  0
  1  2  1  0
  2  3  2  0
  3  4  1  0
  4  5  2  0
  5  6  1  0
  6  7  1  0
  7  8  1  0
  8  9  1  0
  9 10  1  0
 10 11  1  0
 11 12  1  0
 12 13  2  0
 13 14  1  0
 14 15  1  0
 15 16  1  0
 16 17  2  0
 16 18  1  0
 18 19  1  0
 19 20  1  0
 20 21  2  0
 21 22  1  0
 22 23  2  0
 23 24  1  0
 24 25  2  0
 25 26  1  0
 10 27  1  0
 27 28  1  0
  6 29  2  0
 29 30  1  0
 29  2  1  0
 28  7  1  0
 26 18  2  0
 25 20  1  0
M  END
>  <pIC50>  (118) 
6.96

>  <ChEMBL_ID>  (118) 
CHEMBL366904

>  <document_journal>  (118) 
J. Med. Chem.

>  <bao_endpoint>  (118) 
BAO_0000190

>  <potential_duplicate>  (118) 
False

>  <uo_units>  (118) 
UO_0000065

>  <canonical_smiles>  (118) 
Clc1cccc(N2CCN(C\C=C\CNC(=O)c3oc4ccccc4c3)CC2)c1Cl

>  <parent_molecule_chembl_id>  (118) 
CHEMBL366904

>  <assay_type>  (118) 
F

>  <src_id>  (118) 
1

>  <ligand_efficiency>  (118) 
None

>  <standard_flag>  (118) 
True

>  <molecule_chembl_id>  (118) 
CHEMBL366904

>  <target_organism>  (118) 
Homo sapiens

>  <standard_units>  (118) 
nM

>  <record_id>  (118) 
391189

>  <document_chembl_id>  (118) 
CHEMBL1139520

>  <bao_format>  (118) 
BAO_0000219

>  <data_validity_description>  (118) 
None

>  <activity_id>  (118) 
1509561

>  <standard_type>  (118) 
IC50

>  <target_chembl_id>  (118) 
CHEMBL217

>  <data_validity_comment>  (118) 
None

>  <published_value>  (118) 
111

>  <document_year>  (118) 
2005

>  <target_pref_name>  (118) 
Dopamine D2 receptor

>  <assay_chembl_id>  (118) 
CHEMBL827419

>  <standard_relation>  (118) 
=

>  <assay_description>  (118) 
Mitogenic stimulation or antagonism of 30 nM quinpirole-stimulated mitogenesis in CHO cells expressing human dopamine D2 receptor

>  <published_relation>  (118) 
=

>  <standard_value>  (118) 
111

>  <qudt_units>  (118) 
http://www.openphacts.org/units/Nanomolar

>  <target_tax_id>  (118) 
9606

>  <bao_label>  (118) 
cell-based format

>  <published_units>  (118) 
nM

>  <pchembl_value>  (118) 
6.96

>  <published_type>  (118) 
IC50

>  <activity_comment>  (118) 
None

$$$$

     RDKit          

 30 33  0  0  0  0  0  0  0  0999 V2000
    0.0000    0.0000    0.0000 Cl  0  0  0  0  0  0  0  0  0  0  0  0
    0.0000    0.0000    0.0000 C   0  0  0  0  0  0  0  0  0  0  0  0
    0.0000    0.0000    0.0000 C   0  0  0  0  0  0  0  0  0  0  0  0
    0.0000    0.0000    0.0000 C   0  0  0  0  0  0  0  0  0  0  0  0
    0.0000    0.0000    0.0000 C   0  0  0  0  0  0  0  0  0  0  0  0
    0.0000    0.0000    0.0000 C   0  0  0  0  0  0  0  0  0  0  0  0
    0.0000    0.0000    0.0000 N   0  0  0  0  0  0  0  0  0  0  0  0
    0.0000    0.0000    0.0000 C   0  0  0  0  0  0  0  0  0  0  0  0
    0.0000    0.0000    0.0000 C   0  0  0  0  0  0  0  0  0  0  0  0
    0.0000    0.0000    0.0000 N   0  0  0  0  0  0  0  0  0  0  0  0
    0.0000    0.0000    0.0000 C   0  0  0  0  0  0  0  0  0  0  0  0
    0.0000    0.0000    0.0000 C   0  0  0  0  0  0  0  0  0  0  0  0
    0.0000    0.0000    0.0000 C   0  0  0  0  0  0  0  0  0  0  0  0
    0.0000    0.0000    0.0000 C   0  0  0  0  0  0  0  0  0  0  0  0
    0.0000    0.0000    0.0000 N   0  0  0  0  0  0  0  0  0  0  0  0
    0.0000    0.0000    0.0000 C   0  0  0  0  0  0  0  0  0  0  0  0
    0.0000    0.0000    0.0000 O   0  0  0  0  0  0  0  0  0  0  0  0
    0.0000    0.0000    0.0000 C   0  0  0  0  0  0  0  0  0  0  0  0
    0.0000    0.0000    0.0000 C   0  0  0  0  0  0  0  0  0  0  0  0
    0.0000    0.0000    0.0000 C   0  0  0  0  0  0  0  0  0  0  0  0
    0.0000    0.0000    0.0000 C   0  0  0  0  0  0  0  0  0  0  0  0
    0.0000    0.0000    0.0000 C   0  0  0  0  0  0  0  0  0  0  0  0
    0.0000    0.0000    0.0000 C   0  0  0  0  0  0  0  0  0  0  0  0
    0.0000    0.0000    0.0000 C   0  0  0  0  0  0  0  0  0  0  0  0
    0.0000    0.0000    0.0000 C   0  0  0  0  0  0  0  0  0  0  0  0
    0.0000    0.0000    0.0000 S   0  0  0  0  0  0  0  0  0  0  0  0
    0.0000    0.0000    0.0000 C   0  0  0  0  0  0  0  0  0  0  0  0
    0.0000    0.0000    0.0000 C   0  0  0  0  0  0  0  0  0  0  0  0
    0.0000    0.0000    0.0000 C   0  0  0  0  0  0  0  0  0  0  0  0
    0.0000    0.0000    0.0000 Cl  0  0  0  0  0  0  0  0  0  0  0  0
  1  2  1  0
  2  3  2  0
  3  4  1  0
  4  5  2  0
  5  6  1  0
  6  7  1  0
  7  8  1  0
  8  9  1  0
  9 10  1  0
 10 11  1  0
 11 12  1  0
 12 13  2  0
 13 14  1  0
 14 15  1  0
 15 16  1  0
 16 17  2  0
 16 18  1  0
 18 19  2  0
 19 20  1  0
 20 21  2  0
 21 22  1  0
 22 23  2  0
 23 24  1  0
 24 25  2  0
 25 26  1  0
 10 27  1  0
 27 28  1  0
  6 29  2  0
 29 30  1  0
 29  2  1  0
 28  7  1  0
 26 18  1  0
 25 20  1  0
M  END
>  <pIC50>  (119) 
6.6

>  <ChEMBL_ID>  (119) 
CHEMBL175734

>  <document_journal>  (119) 
J. Med. Chem.

>  <bao_endpoint>  (119) 
BAO_0000190

>  <potential_duplicate>  (119) 
False

>  <uo_units>  (119) 
UO_0000065

>  <canonical_smiles>  (119) 
Clc1cccc(N2CCN(C\C=C\CNC(=O)c3cc4ccccc4s3)CC2)c1Cl

>  <parent_molecule_chembl_id>  (119) 
CHEMBL175734

>  <assay_type>  (119) 
F

>  <src_id>  (119) 
1

>  <ligand_efficiency>  (119) 
None

>  <standard_flag>  (119) 
True

>  <molecule_chembl_id>  (119) 
CHEMBL175734

>  <target_organism>  (119) 
Homo sapiens

>  <standard_units>  (119) 
nM

>  <record_id>  (119) 
391214

>  <document_chembl_id>  (119) 
CHEMBL1139520

>  <bao_format>  (119) 
BAO_0000219

>  <data_validity_description>  (119) 
None

>  <activity_id>  (119) 
1509573

>  <standard_type>  (119) 
IC50

>  <target_chembl_id>  (119) 
CHEMBL217

>  <data_validity_comment>  (119) 
None

>  <published_value>  (119) 
254

>  <document_year>  (119) 
2005

>  <target_pref_name>  (119) 
Dopamine D2 receptor

>  <assay_chembl_id>  (119) 
CHEMBL827419

>  <standard_relation>  (119) 
=

>  <assay_description>  (119) 
Mitogenic stimulation or antagonism of 30 nM quinpirole-stimulated mitogenesis in CHO cells expressing human dopamine D2 receptor

>  <published_relation>  (119) 
=

>  <standard_value>  (119) 
254

>  <qudt_units>  (119) 
http://www.openphacts.org/units/Nanomolar

>  <target_tax_id>  (119) 
9606

>  <bao_label>  (119) 
cell-based format

>  <published_units>  (119) 
nM

>  <pchembl_value>  (119) 
6.6

>  <published_type>  (119) 
IC50

>  <activity_comment>  (119) 
None

$$$$

     RDKit          

 33 36  0  0  0  0  0  0  0  0999 V2000
    0.0000    0.0000    0.0000 Cl  0  0  0  0  0  0  0  0  0  0  0  0
    0.0000    0.0000    0.0000 C   0  0  0  0  0  0  0  0  0  0  0  0
    0.0000    0.0000    0.0000 C   0  0  0  0  0  0  0  0  0  0  0  0
    0.0000    0.0000    0.0000 C   0  0  0  0  0  0  0  0  0  0  0  0
    0.0000    0.0000    0.0000 C   0  0  0  0  0  0  0  0  0  0  0  0
    0.0000    0.0000    0.0000 C   0  0  0  0  0  0  0  0  0  0  0  0
    0.0000    0.0000    0.0000 N   0  0  0  0  0  0  0  0  0  0  0  0
    0.0000    0.0000    0.0000 C   0  0  0  0  0  0  0  0  0  0  0  0
    0.0000    0.0000    0.0000 C   0  0  0  0  0  0  0  0  0  0  0  0
    0.0000    0.0000    0.0000 N   0  0  0  0  0  0  0  0  0  0  0  0
    0.0000    0.0000    0.0000 C   0  0  0  0  0  0  0  0  0  0  0  0
    0.0000    0.0000    0.0000 C   0  0  0  0  0  0  0  0  0  0  0  0
    0.0000    0.0000    0.0000 C   0  0  0  0  0  0  0  0  0  0  0  0
    0.0000    0.0000    0.0000 C   0  0  0  0  0  0  0  0  0  0  0  0
    0.0000    0.0000    0.0000 N   0  0  0  0  0  0  0  0  0  0  0  0
    0.0000    0.0000    0.0000 C   0  0  0  0  0  0  0  0  0  0  0  0
    0.0000    0.0000    0.0000 O   0  0  0  0  0  0  0  0  0  0  0  0
    0.0000    0.0000    0.0000 C   0  0  0  0  0  0  0  0  0  0  0  0
    0.0000    0.0000    0.0000 C   0  0  0  0  0  0  0  0  0  0  0  0
    0.0000    0.0000    0.0000 C   0  0  0  0  0  0  0  0  0  0  0  0
    0.0000    0.0000    0.0000 C   0  0  0  0  0  0  0  0  0  0  0  0
    0.0000    0.0000    0.0000 C   0  0  0  0  0  0  0  0  0  0  0  0
    0.0000    0.0000    0.0000 C   0  0  0  0  0  0  0  0  0  0  0  0
    0.0000    0.0000    0.0000 C   0  0  0  0  0  0  0  0  0  0  0  0
    0.0000    0.0000    0.0000 C   0  0  0  0  0  0  0  0  0  0  0  0
    0.0000    0.0000    0.0000 C   0  0  0  0  0  0  0  0  0  0  0  0
    0.0000    0.0000    0.0000 C   0  0  0  0  0  0  0  0  0  0  0  0
    0.0000    0.0000    0.0000 C   0  0  0  0  0  0  0  0  0  0  0  0
    0.0000    0.0000    0.0000 N   0  0  0  0  0  0  0  0  0  0  0  0
    0.0000    0.0000    0.0000 C   0  0  0  0  0  0  0  0  0  0  0  0
    0.0000    0.0000    0.0000 C   0  0  0  0  0  0  0  0  0  0  0  0
    0.0000    0.0000    0.0000 C   0  0  0  0  0  0  0  0  0  0  0  0
    0.0000    0.0000    0.0000 Cl  0  0  0  0  0  0  0  0  0  0  0  0
  1  2  1  0
  2  3  2  0
  3  4  1  0
  4  5  2  0
  5  6  1  0
  6  7  1  0
  7  8  1  0
  8  9  1  0
  9 10  1  0
 10 11  1  0
 11 12  1  0
 12 13  2  0
 13 14  1  0
 14 15  1  0
 15 16  1  0
 16 17  2  0
 16 18  1  0
 18 19  2  0
 19 20  1  0
 20 21  2  0
 21 22  1  0
 22 23  2  0
 21 24  1  0
 24 25  2  0
 25 26  1  0
 26 27  2  0
 27 28  1  0
 28 29  2  0
 10 30  1  0
 30 31  1  0
  6 32  2  0
 32 33  1  0
 32  2  1  0
 31  7  1  0
 23 18  1  0
 29 24  1  0
M  END
>  <pIC50>  (120) 
7.09

>  <ChEMBL_ID>  (120) 
CHEMBL180010

>  <document_journal>  (120) 
J. Med. Chem.

>  <bao_endpoint>  (120) 
BAO_0000190

>  <potential_duplicate>  (120) 
False

>  <uo_units>  (120) 
UO_0000065

>  <canonical_smiles>  (120) 
Clc1cccc(N2CCN(C\C=C\CNC(=O)c3ccc(cc3)c4ccccn4)CC2)c1Cl

>  <parent_molecule_chembl_id>  (120) 
CHEMBL180010

>  <assay_type>  (120) 
F

>  <src_id>  (120) 
1

>  <ligand_efficiency>  (120) 
None

>  <standard_flag>  (120) 
True

>  <molecule_chembl_id>  (120) 
CHEMBL180010

>  <target_organism>  (120) 
Homo sapiens

>  <standard_units>  (120) 
nM

>  <record_id>  (120) 
391241

>  <document_chembl_id>  (120) 
CHEMBL1139520

>  <bao_format>  (120) 
BAO_0000219

>  <data_validity_description>  (120) 
None

>  <activity_id>  (120) 
1509585

>  <standard_type>  (120) 
IC50

>  <target_chembl_id>  (120) 
CHEMBL217

>  <data_validity_comment>  (120) 
None

>  <published_value>  (120) 
80.9

>  <document_year>  (120) 
2005

>  <target_pref_name>  (120) 
Dopamine D2 receptor

>  <assay_chembl_id>  (120) 
CHEMBL827419

>  <standard_relation>  (120) 
=

>  <assay_description>  (120) 
Mitogenic stimulation or antagonism of 30 nM quinpirole-stimulated mitogenesis in CHO cells expressing human dopamine D2 receptor

>  <published_relation>  (120) 
=

>  <standard_value>  (120) 
80.9

>  <qudt_units>  (120) 
http://www.openphacts.org/units/Nanomolar

>  <target_tax_id>  (120) 
9606

>  <bao_label>  (120) 
cell-based format

>  <published_units>  (120) 
nM

>  <pchembl_value>  (120) 
7.09

>  <published_type>  (120) 
IC50

>  <activity_comment>  (120) 
None

$$$$

     RDKit          

 34 38  0  0  0  0  0  0  0  0999 V2000
    0.0000    0.0000    0.0000 Cl  0  0  0  0  0  0  0  0  0  0  0  0
    0.0000    0.0000    0.0000 C   0  0  0  0  0  0  0  0  0  0  0  0
    0.0000    0.0000    0.0000 C   0  0  0  0  0  0  0  0  0  0  0  0
    0.0000    0.0000    0.0000 C   0  0  0  0  0  0  0  0  0  0  0  0
    0.0000    0.0000    0.0000 C   0  0  0  0  0  0  0  0  0  0  0  0
    0.0000    0.0000    0.0000 C   0  0  0  0  0  0  0  0  0  0  0  0
    0.0000    0.0000    0.0000 N   0  0  0  0  0  0  0  0  0  0  0  0
    0.0000    0.0000    0.0000 C   0  0  0  0  0  0  0  0  0  0  0  0
    0.0000    0.0000    0.0000 C   0  0  0  0  0  0  0  0  0  0  0  0
    0.0000    0.0000    0.0000 N   0  0  0  0  0  0  0  0  0  0  0  0
    0.0000    0.0000    0.0000 C   0  0  0  0  0  0  0  0  0  0  0  0
    0.0000    0.0000    0.0000 C   0  0  0  0  0  0  0  0  0  0  0  0
    0.0000    0.0000    0.0000 C   0  0  0  0  0  0  0  0  0  0  0  0
    0.0000    0.0000    0.0000 C   0  0  0  0  0  0  0  0  0  0  0  0
    0.0000    0.0000    0.0000 N   0  0  0  0  0  0  0  0  0  0  0  0
    0.0000    0.0000    0.0000 C   0  0  0  0  0  0  0  0  0  0  0  0
    0.0000    0.0000    0.0000 O   0  0  0  0  0  0  0  0  0  0  0  0
    0.0000    0.0000    0.0000 C   0  0  0  0  0  0  0  0  0  0  0  0
    0.0000    0.0000    0.0000 C   0  0  0  0  0  0  0  0  0  0  0  0
    0.0000    0.0000    0.0000 C   0  0  0  0  0  0  0  0  0  0  0  0
    0.0000    0.0000    0.0000 C   0  0  0  0  0  0  0  0  0  0  0  0
    0.0000    0.0000    0.0000 C   0  0  0  0  0  0  0  0  0  0  0  0
    0.0000    0.0000    0.0000 C   0  0  0  0  0  0  0  0  0  0  0  0
    0.0000    0.0000    0.0000 C   0  0  0  0  0  0  0  0  0  0  0  0
    0.0000    0.0000    0.0000 C   0  0  0  0  0  0  0  0  0  0  0  0
    0.0000    0.0000    0.0000 C   0  0  0  0  0  0  0  0  0  0  0  0
    0.0000    0.0000    0.0000 C   0  0  0  0  0  0  0  0  0  0  0  0
    0.0000    0.0000    0.0000 C   0  0  0  0  0  0  0  0  0  0  0  0
    0.0000    0.0000    0.0000 C   0  0  0  0  0  0  0  0  0  0  0  0
    0.0000    0.0000    0.0000 C   0  0  0  0  0  0  0  0  0  0  0  0
    0.0000    0.0000    0.0000 C   0  0  0  0  0  0  0  0  0  0  0  0
    0.0000    0.0000    0.0000 C   0  0  0  0  0  0  0  0  0  0  0  0
    0.0000    0.0000    0.0000 C   0  0  0  0  0  0  0  0  0  0  0  0
    0.0000    0.0000    0.0000 Cl  0  0  0  0  0  0  0  0  0  0  0  0
  1  2  1  0
  2  3  2  0
  3  4  1  0
  4  5  2  0
  5  6  1  0
  6  7  1  0
  7  8  1  0
  8  9  1  0
  9 10  1  0
 10 11  1  0
 11 12  1  0
 12 13  1  0
 13 14  1  0
 14 15  1  0
 15 16  1  0
 16 17  2  0
 16 18  1  0
 18 19  2  0
 19 20  1  0
 20 21  2  0
 21 22  1  0
 22 23  1  0
 23 24  1  0
 24 25  2  0
 25 26  1  0
 26 27  2  0
 27 28  1  0
 28 29  2  0
 22 30  2  0
 10 31  1  0
 31 32  1  0
  6 33  2  0
 33 34  1  0
 33  2  1  0
 32  7  1  0
 30 18  1  0
 29 21  1  0
 29 24  1  0
M  END
>  <pIC50>  (121) 
5.89

>  <ChEMBL_ID>  (121) 
CHEMBL300780

>  <document_journal>  (121) 
J. Med. Chem.

>  <bao_endpoint>  (121) 
BAO_0000190

>  <potential_duplicate>  (121) 
False

>  <uo_units>  (121) 
UO_0000065

>  <canonical_smiles>  (121) 
Clc1cccc(N2CCN(CCCCNC(=O)c3ccc4c(Cc5ccccc45)c3)CC2)c1Cl

>  <parent_molecule_chembl_id>  (121) 
CHEMBL300780

>  <assay_type>  (121) 
F

>  <src_id>  (121) 
1

>  <ligand_efficiency>  (121) 
None

>  <standard_flag>  (121) 
True

>  <molecule_chembl_id>  (121) 
CHEMBL300780

>  <target_organism>  (121) 
Homo sapiens

>  <standard_units>  (121) 
nM

>  <record_id>  (121) 
391162

>  <document_chembl_id>  (121) 
CHEMBL1139520

>  <bao_format>  (121) 
BAO_0000219

>  <data_validity_description>  (121) 
None

>  <activity_id>  (121) 
1510960

>  <standard_type>  (121) 
IC50

>  <target_chembl_id>  (121) 
CHEMBL217

>  <data_validity_comment>  (121) 
None

>  <published_value>  (121) 
1280

>  <document_year>  (121) 
2005

>  <target_pref_name>  (121) 
Dopamine D2 receptor

>  <assay_chembl_id>  (121) 
CHEMBL827419

>  <standard_relation>  (121) 
=

>  <assay_description>  (121) 
Mitogenic stimulation or antagonism of 30 nM quinpirole-stimulated mitogenesis in CHO cells expressing human dopamine D2 receptor

>  <published_relation>  (121) 
=

>  <standard_value>  (121) 
1280

>  <qudt_units>  (121) 
http://www.openphacts.org/units/Nanomolar

>  <target_tax_id>  (121) 
9606

>  <bao_label>  (121) 
cell-based format

>  <published_units>  (121) 
nM

>  <pchembl_value>  (121) 
5.89

>  <published_type>  (121) 
IC50

>  <activity_comment>  (121) 
None

$$$$

     RDKit          

 28 32  0  0  0  0  0  0  0  0999 V2000
    0.0000    0.0000    0.0000 O   0  0  0  0  0  0  0  0  0  0  0  0
    0.0000    0.0000    0.0000 C   0  0  0  0  0  0  0  0  0  0  0  0
    0.0000    0.0000    0.0000 C   0  0  0  0  0  0  0  0  0  0  0  0
    0.0000    0.0000    0.0000 C   0  0  0  0  0  0  0  0  0  0  0  0
    0.0000    0.0000    0.0000 C   0  0  0  0  0  0  0  0  0  0  0  0
    0.0000    0.0000    0.0000 C   0  0  0  0  0  0  0  0  0  0  0  0
    0.0000    0.0000    0.0000 C   0  0  0  0  0  0  0  0  0  0  0  0
    0.0000    0.0000    0.0000 C   0  0  0  0  0  0  0  0  0  0  0  0
    0.0000    0.0000    0.0000 N   0  0  0  0  0  0  0  0  0  0  0  0
    0.0000    0.0000    0.0000 C   0  0  0  0  0  0  0  0  0  0  0  0
    0.0000    0.0000    0.0000 C   0  0  0  0  0  0  0  0  0  0  0  0
    0.0000    0.0000    0.0000 N   0  0  0  0  0  0  0  0  0  0  0  0
    0.0000    0.0000    0.0000 C   0  0  0  0  0  0  0  0  0  0  0  0
    0.0000    0.0000    0.0000 C   0  0  0  0  0  0  0  0  0  0  0  0
    0.0000    0.0000    0.0000 C   0  0  0  0  0  0  0  0  0  0  0  0
    0.0000    0.0000    0.0000 C   0  0  0  0  0  0  0  0  0  0  0  0
    0.0000    0.0000    0.0000 C   0  0  0  0  0  0  0  0  0  0  0  0
    0.0000    0.0000    0.0000 C   0  0  0  0  0  0  0  0  0  0  0  0
    0.0000    0.0000    0.0000 C   0  0  0  0  0  0  0  0  0  0  0  0
    0.0000    0.0000    0.0000 C   0  0  0  0  0  0  0  0  0  0  0  0
    0.0000    0.0000    0.0000 C   0  0  0  0  0  0  0  0  0  0  0  0
    0.0000    0.0000    0.0000 C   0  0  0  0  0  0  0  0  0  0  0  0
    0.0000    0.0000    0.0000 C   0  0  0  0  0  0  0  0  0  0  0  0
    0.0000    0.0000    0.0000 C   0  0  0  0  0  0  0  0  0  0  0  0
    0.0000    0.0000    0.0000 C   0  0  0  0  0  0  0  0  0  0  0  0
    0.0000    0.0000    0.0000 C   0  0  0  0  0  0  0  0  0  0  0  0
    0.0000    0.0000    0.0000 C   0  0  0  0  0  0  0  0  0  0  0  0
    0.0000    0.0000    0.0000 N   0  0  0  0  0  0  0  0  0  0  0  0
  1  2  2  0
  2  3  1  0
  3  4  1  0
  4  5  2  0
  5  6  1  0
  6  7  1  0
  7  8  1  0
  8  9  1  0
  9 10  1  0
 10 11  1  0
 11 12  1  0
 12 13  1  0
 13 14  1  0
 12 15  1  0
 15 16  2  0
 16 17  1  0
 17 18  2  0
 18 19  1  0
 19 20  2  0
 20 21  1  0
 21 22  2  0
 22 23  1  0
 23 24  2  0
  6 25  2  0
 25 26  1  0
 26 27  2  0
 27 28  1  0
 28  2  1  0
 27  4  1  0
 14  9  1  0
 24 15  1  0
 24 19  1  0
M  END
>  <pIC50>  (122) 
7.36

>  <ChEMBL_ID>  (122) 
CHEMBL54786

>  <document_journal>  (122) 
J. Med. Chem.

>  <bao_endpoint>  (122) 
BAO_0000190

>  <potential_duplicate>  (122) 
False

>  <uo_units>  (122) 
UO_0000065

>  <canonical_smiles>  (122) 
O=C1Cc2cc(CCN3CCN(CC3)c4cccc5ccccc45)ccc2N1

>  <parent_molecule_chembl_id>  (122) 
CHEMBL54786

>  <assay_type>  (122) 
B

>  <src_id>  (122) 
1

>  <ligand_efficiency>  (122) 
{u'le': u'0.36', u'bei': u'19.8', u'sei': u'20.68', u'lle': u'3.61'}

>  <standard_flag>  (122) 
True

>  <molecule_chembl_id>  (122) 
CHEMBL54786

>  <target_organism>  (122) 
Homo sapiens

>  <standard_units>  (122) 
nM

>  <record_id>  (122) 
405337

>  <document_chembl_id>  (122) 
CHEMBL1140446

>  <bao_format>  (122) 
BAO_0000357

>  <data_validity_description>  (122) 
None

>  <activity_id>  (122) 
1617764

>  <standard_type>  (122) 
IC50

>  <target_chembl_id>  (122) 
CHEMBL217

>  <data_validity_comment>  (122) 
None

>  <published_value>  (122) 
44

>  <document_year>  (122) 
2005

>  <target_pref_name>  (122) 
Dopamine D2 receptor

>  <assay_chembl_id>  (122) 
CHEMBL872217

>  <standard_relation>  (122) 
=

>  <assay_description>  (122) 
Inhibitory concentration against dopamine receptor D2

>  <published_relation>  (122) 
=

>  <standard_value>  (122) 
44

>  <qudt_units>  (122) 
http://www.openphacts.org/units/Nanomolar

>  <target_tax_id>  (122) 
9606

>  <bao_label>  (122) 
single protein format

>  <published_units>  (122) 
nM

>  <pchembl_value>  (122) 
7.36

>  <published_type>  (122) 
IC50

>  <activity_comment>  (122) 
None

$$$$

     RDKit          

 28 32  0  0  0  0  0  0  0  0999 V2000
    0.0000    0.0000    0.0000 Cl  0  0  0  0  0  0  0  0  0  0  0  0
    0.0000    0.0000    0.0000 C   0  0  0  0  0  0  0  0  0  0  0  0
    0.0000    0.0000    0.0000 C   0  0  0  0  0  0  0  0  0  0  0  0
    0.0000    0.0000    0.0000 C   0  0  0  0  0  0  0  0  0  0  0  0
    0.0000    0.0000    0.0000 N   0  0  0  0  0  0  0  0  0  0  0  0
    0.0000    0.0000    0.0000 C   0  0  0  0  0  0  0  0  0  0  0  0
    0.0000    0.0000    0.0000 O   0  0  0  0  0  0  0  0  0  0  0  0
    0.0000    0.0000    0.0000 C   0  0  0  0  0  0  0  0  0  0  0  0
    0.0000    0.0000    0.0000 C   0  0  0  0  0  0  0  0  0  0  0  0
    0.0000    0.0000    0.0000 C   0  0  0  0  0  0  0  0  0  0  0  0
    0.0000    0.0000    0.0000 C   0  0  0  0  0  0  0  0  0  0  0  0
    0.0000    0.0000    0.0000 C   0  0  0  0  0  0  0  0  0  0  0  0
    0.0000    0.0000    0.0000 C   0  0  0  0  0  0  0  0  0  0  0  0
    0.0000    0.0000    0.0000 N   0  0  0  0  0  0  0  0  0  0  0  0
    0.0000    0.0000    0.0000 C   0  0  0  0  0  0  0  0  0  0  0  0
    0.0000    0.0000    0.0000 C   0  0  0  0  0  0  0  0  0  0  0  0
    0.0000    0.0000    0.0000 N   0  0  0  0  0  0  0  0  0  0  0  0
    0.0000    0.0000    0.0000 C   0  0  0  0  0  0  0  0  0  0  0  0
    0.0000    0.0000    0.0000 C   0  0  0  0  0  0  0  0  0  0  0  0
    0.0000    0.0000    0.0000 C   0  0  0  0  0  0  0  0  0  0  0  0
    0.0000    0.0000    0.0000 N   0  0  0  0  0  0  0  0  0  0  0  0
    0.0000    0.0000    0.0000 S   0  0  0  0  0  0  0  0  0  0  0  0
    0.0000    0.0000    0.0000 C   0  0  0  0  0  0  0  0  0  0  0  0
    0.0000    0.0000    0.0000 C   0  0  0  0  0  0  0  0  0  0  0  0
    0.0000    0.0000    0.0000 C   0  0  0  0  0  0  0  0  0  0  0  0
    0.0000    0.0000    0.0000 C   0  0  0  0  0  0  0  0  0  0  0  0
    0.0000    0.0000    0.0000 C   0  0  0  0  0  0  0  0  0  0  0  0
    0.0000    0.0000    0.0000 C   0  0  0  0  0  0  0  0  0  0  0  0
  1  2  1  0
  2  3  2  0
  3  4  1  0
  4  5  1  0
  5  6  1  0
  6  7  2  0
  6  8  1  0
  8  9  1  0
  9 10  1  0
 10 11  2  0
 11 12  1  0
 12 13  1  0
 13 14  1  0
 14 15  1  0
 15 16  1  0
 16 17  1  0
 17 18  1  0
 18 19  1  0
 17 20  1  0
 20 21  2  0
 21 22  1  0
 22 23  1  0
 23 24  2  0
 24 25  1  0
 25 26  2  0
 26 27  1  0
 27 28  2  0
 11  2  1  0
  9  4  2  0
 19 14  1  0
 28 20  1  0
 28 23  1  0
M  END
>  <pIC50>  (123) 
8.3

>  <ChEMBL_ID>  (123) 
CHEMBL708

>  <document_journal>  (123) 
J. Med. Chem.

>  <bao_endpoint>  (123) 
BAO_0000190

>  <potential_duplicate>  (123) 
False

>  <uo_units>  (123) 
UO_0000065

>  <canonical_smiles>  (123) 
Clc1cc2NC(=O)Cc2cc1CCN3CCN(CC3)c4nsc5ccccc45

>  <parent_molecule_chembl_id>  (123) 
CHEMBL708

>  <assay_type>  (123) 
B

>  <src_id>  (123) 
1

>  <ligand_efficiency>  (123) 
{u'le': u'0.4', u'bei': u'20.1', u'sei': u'10.82', u'lle': u'4.04'}

>  <standard_flag>  (123) 
True

>  <molecule_chembl_id>  (123) 
CHEMBL708

>  <target_organism>  (123) 
Homo sapiens

>  <standard_units>  (123) 
nM

>  <record_id>  (123) 
405348

>  <document_chembl_id>  (123) 
CHEMBL1140446

>  <bao_format>  (123) 
BAO_0000357

>  <data_validity_description>  (123) 
None

>  <activity_id>  (123) 
1617788

>  <standard_type>  (123) 
IC50

>  <target_chembl_id>  (123) 
CHEMBL217

>  <data_validity_comment>  (123) 
None

>  <published_value>  (123) 
5

>  <document_year>  (123) 
2005

>  <target_pref_name>  (123) 
Dopamine D2 receptor

>  <assay_chembl_id>  (123) 
CHEMBL872217

>  <standard_relation>  (123) 
=

>  <assay_description>  (123) 
Inhibitory concentration against dopamine receptor D2

>  <published_relation>  (123) 
=

>  <standard_value>  (123) 
5

>  <qudt_units>  (123) 
http://www.openphacts.org/units/Nanomolar

>  <target_tax_id>  (123) 
9606

>  <bao_label>  (123) 
single protein format

>  <published_units>  (123) 
nM

>  <pchembl_value>  (123) 
8.3

>  <published_type>  (123) 
IC50

>  <activity_comment>  (123) 
None

$$$$

     RDKit          

 26 29  0  0  0  0  0  0  0  0999 V2000
    0.0000    0.0000    0.0000 Cl  0  0  0  0  0  0  0  0  0  0  0  0
    0.0000    0.0000    0.0000 C   0  0  0  0  0  0  0  0  0  0  0  0
    0.0000    0.0000    0.0000 C   0  0  0  0  0  0  0  0  0  0  0  0
    0.0000    0.0000    0.0000 C   0  0  0  0  0  0  0  0  0  0  0  0
    0.0000    0.0000    0.0000 C   0  0  0  0  0  0  0  0  0  0  0  0
    0.0000    0.0000    0.0000 C   0  0  0  0  0  0  0  0  0  0  0  0
    0.0000    0.0000    0.0000 N   0  0  0  0  0  0  0  0  0  0  0  0
    0.0000    0.0000    0.0000 C   0  0  0  0  0  0  0  0  0  0  0  0
    0.0000    0.0000    0.0000 C   0  0  0  0  0  0  0  0  0  0  0  0
    0.0000    0.0000    0.0000 N   0  0  0  0  0  0  0  0  0  0  0  0
    0.0000    0.0000    0.0000 C   0  0  0  0  0  0  0  0  0  0  0  0
    0.0000    0.0000    0.0000 C   0  0  0  0  0  0  0  0  0  0  0  0
    0.0000    0.0000    0.0000 O   0  0  0  0  0  0  0  0  0  0  0  0
    0.0000    0.0000    0.0000 N   0  0  0  0  0  0  0  0  0  0  0  0
    0.0000    0.0000    0.0000 C   0  0  0  0  0  0  0  0  0  0  0  0
    0.0000    0.0000    0.0000 C   0  0  0  0  0  0  0  0  0  0  0  0
    0.0000    0.0000    0.0000 C   0  0  0  0  0  0  0  0  0  0  0  0
    0.0000    0.0000    0.0000 C   0  0  0  0  0  0  0  0  0  0  0  0
    0.0000    0.0000    0.0000 C   0  0  0  0  0  0  0  0  0  0  0  0
    0.0000    0.0000    0.0000 C   0  0  0  0  0  0  0  0  0  0  0  0
    0.0000    0.0000    0.0000 C   0  0  0  0  0  0  0  0  0  0  0  0
    0.0000    0.0000    0.0000 C   0  0  0  0  0  0  0  0  0  0  0  0
    0.0000    0.0000    0.0000 C   0  0  0  0  0  0  0  0  0  0  0  0
    0.0000    0.0000    0.0000 C   0  0  0  0  0  0  0  0  0  0  0  0
    0.0000    0.0000    0.0000 C   0  0  0  0  0  0  0  0  0  0  0  0
    0.0000    0.0000    0.0000 C   0  0  0  0  0  0  0  0  0  0  0  0
  1  2  1  0
  2  3  2  0
  3  4  1  0
  4  5  2  0
  5  6  1  0
  6  7  1  0
  7  8  1  0
  8  9  1  0
  9 10  1  0
 10 11  1  0
 11 12  1  0
 12 13  2  0
 12 14  1  0
 14 15  1  0
 15 16  1  0
 16 17  1  0
 17 18  2  0
 18 19  1  0
 19 20  2  0
 20 21  1  0
 21 22  2  0
 10 23  1  0
 23 24  1  0
  5 25  1  0
 25 26  2  0
 26  2  1  0
 24  7  1  0
 22 14  1  0
 22 17  1  0
M  END
>  <pIC50>  (124) 
6.16

>  <ChEMBL_ID>  (124) 
CHEMBL69584

>  <document_journal>  (124) 
J. Med. Chem.

>  <bao_endpoint>  (124) 
BAO_0000190

>  <potential_duplicate>  (124) 
False

>  <uo_units>  (124) 
UO_0000065

>  <canonical_smiles>  (124) 
Clc1ccc(CN2CCN(CC(=O)N3CCc4ccccc34)CC2)cc1

>  <parent_molecule_chembl_id>  (124) 
CHEMBL69584

>  <assay_type>  (124) 
B

>  <src_id>  (124) 
1

>  <ligand_efficiency>  (124) 
{u'le': u'0.32', u'bei': u'16.66', u'sei': u'23', u'lle': u'2.72'}

>  <standard_flag>  (124) 
True

>  <molecule_chembl_id>  (124) 
CHEMBL69584

>  <target_organism>  (124) 
Homo sapiens

>  <standard_units>  (124) 
nM

>  <record_id>  (124) 
405360

>  <document_chembl_id>  (124) 
CHEMBL1140446

>  <bao_format>  (124) 
BAO_0000357

>  <data_validity_description>  (124) 
None

>  <activity_id>  (124) 
1617862

>  <standard_type>  (124) 
IC50

>  <target_chembl_id>  (124) 
CHEMBL217

>  <data_validity_comment>  (124) 
None

>  <published_value>  (124) 
690

>  <document_year>  (124) 
2005

>  <target_pref_name>  (124) 
Dopamine D2 receptor

>  <assay_chembl_id>  (124) 
CHEMBL872217

>  <standard_relation>  (124) 
=

>  <assay_description>  (124) 
Inhibitory concentration against dopamine receptor D2

>  <published_relation>  (124) 
=

>  <standard_value>  (124) 
690

>  <qudt_units>  (124) 
http://www.openphacts.org/units/Nanomolar

>  <target_tax_id>  (124) 
9606

>  <bao_label>  (124) 
single protein format

>  <published_units>  (124) 
nM

>  <pchembl_value>  (124) 
6.16

>  <published_type>  (124) 
IC50

>  <activity_comment>  (124) 
None

$$$$

     RDKit          

 27 30  0  0  0  0  0  0  0  0999 V2000
    0.0000    0.0000    0.0000 C   0  0  0  0  0  0  0  0  0  0  0  0
    0.0000    0.0000    0.0000 C   0  0  0  0  0  0  0  0  0  0  0  0
    0.0000    0.0000    0.0000 C   0  0  0  0  0  0  0  0  0  0  0  0
    0.0000    0.0000    0.0000 C   0  0  0  0  0  0  0  0  0  0  0  0
    0.0000    0.0000    0.0000 C   0  0  0  0  0  0  0  0  0  0  0  0
    0.0000    0.0000    0.0000 C   0  0  0  0  0  0  0  0  0  0  0  0
    0.0000    0.0000    0.0000 C   0  0  0  0  0  0  0  0  0  0  0  0
    0.0000    0.0000    0.0000 C   0  0  0  0  0  0  0  0  0  0  0  0
    0.0000    0.0000    0.0000 C   0  0  0  0  0  0  0  0  0  0  0  0
    0.0000    0.0000    0.0000 N   0  0  0  0  0  0  0  0  0  0  0  0
    0.0000    0.0000    0.0000 C   0  0  0  0  0  0  0  0  0  0  0  0
    0.0000    0.0000    0.0000 O   0  0  0  0  0  0  0  0  0  0  0  0
    0.0000    0.0000    0.0000 C   0  0  0  0  0  0  0  0  0  0  0  0
    0.0000    0.0000    0.0000 N   0  0  0  0  0  0  0  0  0  0  0  0
    0.0000    0.0000    0.0000 C   0  0  0  0  0  0  0  0  0  0  0  0
    0.0000    0.0000    0.0000 C   0  0  0  0  0  0  0  0  0  0  0  0
    0.0000    0.0000    0.0000 N   0  0  0  0  0  0  0  0  0  0  0  0
    0.0000    0.0000    0.0000 C   0  0  0  0  0  0  0  0  0  0  0  0
    0.0000    0.0000    0.0000 C   0  0  0  0  0  0  0  0  0  0  0  0
    0.0000    0.0000    0.0000 C   0  0  0  0  0  0  0  0  0  0  0  0
    0.0000    0.0000    0.0000 C   0  0  0  0  0  0  0  0  0  0  0  0
    0.0000    0.0000    0.0000 C   0  0  0  0  0  0  0  0  0  0  0  0
    0.0000    0.0000    0.0000 C   0  0  0  0  0  0  0  0  0  0  0  0
    0.0000    0.0000    0.0000 C   0  0  0  0  0  0  0  0  0  0  0  0
    0.0000    0.0000    0.0000 C   0  0  0  0  0  0  0  0  0  0  0  0
    0.0000    0.0000    0.0000 C   0  0  0  0  0  0  0  0  0  0  0  0
    0.0000    0.0000    0.0000 C   0  0  0  0  0  0  0  0  0  0  0  0
  1  2  1  0
  2  3  1  0
  3  4  1  0
  4  5  2  0
  5  6  1  0
  6  7  2  0
  7  8  1  0
  8  9  2  0
  9 10  1  0
 10 11  1  0
 11 12  2  0
 11 13  1  0
 13 14  1  0
 14 15  1  0
 15 16  1  0
 16 17  1  0
 17 18  1  0
 18 19  1  0
 19 20  2  0
 20 21  1  0
 21 22  2  0
 22 23  1  0
 22 24  1  0
 24 25  2  0
 17 26  1  0
 26 27  1  0
 10  2  1  0
  9  4  1  0
 27 14  1  0
 25 19  1  0
M  END
>  <pIC50>  (125) 
6.73

>  <ChEMBL_ID>  (125) 
CHEMBL107742

>  <document_journal>  (125) 
J. Med. Chem.

>  <bao_endpoint>  (125) 
BAO_0000190

>  <potential_duplicate>  (125) 
False

>  <uo_units>  (125) 
UO_0000065

>  <canonical_smiles>  (125) 
CC1Cc2ccccc2N1C(=O)CN3CCN(Cc4ccc(C)cc4)CC3

>  <parent_molecule_chembl_id>  (125) 
CHEMBL107742

>  <assay_type>  (125) 
B

>  <src_id>  (125) 
1

>  <ligand_efficiency>  (125) 
{u'le': u'0.34', u'bei': u'18.5', u'sei': u'25.11', u'lle': u'3.09'}

>  <standard_flag>  (125) 
True

>  <molecule_chembl_id>  (125) 
CHEMBL107742

>  <target_organism>  (125) 
Homo sapiens

>  <standard_units>  (125) 
nM

>  <record_id>  (125) 
405371

>  <document_chembl_id>  (125) 
CHEMBL1140446

>  <bao_format>  (125) 
BAO_0000357

>  <data_validity_description>  (125) 
None

>  <activity_id>  (125) 
1617912

>  <standard_type>  (125) 
IC50

>  <target_chembl_id>  (125) 
CHEMBL217

>  <data_validity_comment>  (125) 
None

>  <published_value>  (125) 
188

>  <document_year>  (125) 
2005

>  <target_pref_name>  (125) 
Dopamine D2 receptor

>  <assay_chembl_id>  (125) 
CHEMBL872217

>  <standard_relation>  (125) 
=

>  <assay_description>  (125) 
Inhibitory concentration against dopamine receptor D2

>  <published_relation>  (125) 
=

>  <standard_value>  (125) 
188

>  <qudt_units>  (125) 
http://www.openphacts.org/units/Nanomolar

>  <target_tax_id>  (125) 
9606

>  <bao_label>  (125) 
single protein format

>  <published_units>  (125) 
nM

>  <pchembl_value>  (125) 
6.73

>  <published_type>  (125) 
IC50

>  <activity_comment>  (125) 
None

$$$$

     RDKit          

 27 30  0  0  0  0  0  0  0  0999 V2000
    0.0000    0.0000    0.0000 C   0  0  0  0  0  0  0  0  0  0  0  0
    0.0000    0.0000    0.0000 C   0  0  0  0  0  0  0  0  0  0  0  0
    0.0000    0.0000    0.0000 C   0  0  0  0  0  0  0  0  0  0  0  0
    0.0000    0.0000    0.0000 C   0  0  0  0  0  0  0  0  0  0  0  0
    0.0000    0.0000    0.0000 C   0  0  0  0  0  0  0  0  0  0  0  0
    0.0000    0.0000    0.0000 C   0  0  0  0  0  0  0  0  0  0  0  0
    0.0000    0.0000    0.0000 C   0  0  0  0  0  0  0  0  0  0  0  0
    0.0000    0.0000    0.0000 C   0  0  0  0  0  0  0  0  0  0  0  0
    0.0000    0.0000    0.0000 C   0  0  0  0  0  0  0  0  0  0  0  0
    0.0000    0.0000    0.0000 N   0  0  0  0  0  0  0  0  0  0  0  0
    0.0000    0.0000    0.0000 C   0  0  0  0  0  0  0  0  0  0  0  0
    0.0000    0.0000    0.0000 O   0  0  0  0  0  0  0  0  0  0  0  0
    0.0000    0.0000    0.0000 C   0  0  0  0  0  0  0  0  0  0  0  0
    0.0000    0.0000    0.0000 N   0  0  0  0  0  0  0  0  0  0  0  0
    0.0000    0.0000    0.0000 C   0  0  0  0  0  0  0  0  0  0  0  0
    0.0000    0.0000    0.0000 C   0  0  0  0  0  0  0  0  0  0  0  0
    0.0000    0.0000    0.0000 N   0  0  0  0  0  0  0  0  0  0  0  0
    0.0000    0.0000    0.0000 C   0  0  0  0  0  0  0  0  0  0  0  0
    0.0000    0.0000    0.0000 C   0  0  0  0  0  0  0  0  0  0  0  0
    0.0000    0.0000    0.0000 C   0  0  0  0  0  0  0  0  0  0  0  0
    0.0000    0.0000    0.0000 C   0  0  0  0  0  0  0  0  0  0  0  0
    0.0000    0.0000    0.0000 C   0  0  0  0  0  0  0  0  0  0  0  0
    0.0000    0.0000    0.0000 C   0  0  0  0  0  0  0  0  0  0  0  0
    0.0000    0.0000    0.0000 C   0  0  0  0  0  0  0  0  0  0  0  0
    0.0000    0.0000    0.0000 C   0  0  0  0  0  0  0  0  0  0  0  0
    0.0000    0.0000    0.0000 C   0  0  0  0  0  0  0  0  0  0  0  0
    0.0000    0.0000    0.0000 C   0  0  0  0  0  0  0  0  0  0  0  0
  1  2  1  0
  2  3  1  0
  3  4  1  0
  4  5  2  0
  5  6  1  0
  6  7  2  0
  7  8  1  0
  8  9  2  0
  9 10  1  0
 10 11  1  0
 11 12  2  0
 11 13  1  0
 13 14  1  0
 14 15  1  0
 15 16  1  0
 16 17  1  0
 17 18  1  0
 18 19  1  0
 19 20  2  0
 20 21  1  0
 21 22  2  0
 22 23  1  0
 22 24  1  0
 24 25  2  0
 17 26  1  0
 26 27  1  0
 10  2  1  0
  9  4  1  0
 27 14  1  0
 25 19  1  0
M  END
>  <pIC50>  (126) 
6.95

>  <ChEMBL_ID>  (126) 
CHEMBL320597

>  <document_journal>  (126) 
J. Med. Chem.

>  <bao_endpoint>  (126) 
BAO_0000190

>  <potential_duplicate>  (126) 
False

>  <uo_units>  (126) 
UO_0000065

>  <canonical_smiles>  (126) 
C[C@@H]1Cc2ccccc2N1C(=O)CN3CCN(Cc4ccc(C)cc4)CC3

>  <parent_molecule_chembl_id>  (126) 
CHEMBL320597

>  <assay_type>  (126) 
B

>  <src_id>  (126) 
1

>  <ligand_efficiency>  (126) 
{u'le': u'0.35', u'bei': u'19.11', u'sei': u'25.93', u'lle': u'3.31'}

>  <standard_flag>  (126) 
True

>  <molecule_chembl_id>  (126) 
CHEMBL320597

>  <target_organism>  (126) 
Homo sapiens

>  <standard_units>  (126) 
nM

>  <record_id>  (126) 
405382

>  <document_chembl_id>  (126) 
CHEMBL1140446

>  <bao_format>  (126) 
BAO_0000357

>  <data_validity_description>  (126) 
None

>  <activity_id>  (126) 
1617936

>  <standard_type>  (126) 
IC50

>  <target_chembl_id>  (126) 
CHEMBL217

>  <data_validity_comment>  (126) 
None

>  <published_value>  (126) 
113

>  <document_year>  (126) 
2005

>  <target_pref_name>  (126) 
Dopamine D2 receptor

>  <assay_chembl_id>  (126) 
CHEMBL872217

>  <standard_relation>  (126) 
=

>  <assay_description>  (126) 
Inhibitory concentration against dopamine receptor D2

>  <published_relation>  (126) 
=

>  <standard_value>  (126) 
113

>  <qudt_units>  (126) 
http://www.openphacts.org/units/Nanomolar

>  <target_tax_id>  (126) 
9606

>  <bao_label>  (126) 
single protein format

>  <published_units>  (126) 
nM

>  <pchembl_value>  (126) 
6.95

>  <published_type>  (126) 
IC50

>  <activity_comment>  (126) 
None

$$$$

     RDKit          

 23 25  0  0  0  0  0  0  0  0999 V2000
    0.0000    0.0000    0.0000 C   0  0  0  0  0  0  0  0  0  0  0  0
    0.0000    0.0000    0.0000 C   0  0  0  0  0  0  0  0  0  0  0  0
    0.0000    0.0000    0.0000 O   0  0  0  0  0  0  0  0  0  0  0  0
    0.0000    0.0000    0.0000 C   0  0  0  0  0  0  0  0  0  0  0  0
    0.0000    0.0000    0.0000 C   0  0  0  0  0  0  0  0  0  0  0  0
    0.0000    0.0000    0.0000 C   0  0  0  0  0  0  0  0  0  0  0  0
    0.0000    0.0000    0.0000 N   0  0  0  0  0  0  0  0  0  0  0  0
    0.0000    0.0000    0.0000 C   0  0  0  0  0  0  0  0  0  0  0  0
    0.0000    0.0000    0.0000 Cl  0  0  0  0  0  0  0  0  0  0  0  0
    0.0000    0.0000    0.0000 C   0  0  0  0  0  0  0  0  0  0  0  0
    0.0000    0.0000    0.0000 C   0  0  0  0  0  0  0  0  0  0  0  0
    0.0000    0.0000    0.0000 C   0  0  0  0  0  0  0  0  0  0  0  0
    0.0000    0.0000    0.0000 O   0  0  0  0  0  0  0  0  0  0  0  0
    0.0000    0.0000    0.0000 N   0  0  0  0  0  0  0  0  0  0  0  0
    0.0000    0.0000    0.0000 C   0  0  0  0  0  0  0  0  0  0  0  0
    0.0000    0.0000    0.0000 C   0  0  0  0  0  0  0  0  0  0  0  0
    0.0000    0.0000    0.0000 C   0  0  0  0  0  0  0  0  0  0  0  0
    0.0000    0.0000    0.0000 C   0  0  0  0  0  0  0  0  0  0  0  0
    0.0000    0.0000    0.0000 N   0  0  0  0  0  0  0  0  0  0  0  0
    0.0000    0.0000    0.0000 C   0  0  0  0  0  0  0  0  0  0  0  0
    0.0000    0.0000    0.0000 C   0  0  0  0  0  0  0  0  0  0  0  0
    0.0000    0.0000    0.0000 C   0  0  0  0  0  0  0  0  0  0  0  0
    0.0000    0.0000    0.0000 C   0  0  0  0  0  0  0  0  0  0  0  0
  1  2  1  0
  2  3  1  0
  3  4  1  0
  4  5  2  0
  5  6  1  0
  6  7  1  0
  6  8  2  0
  8  9  1  0
  8 10  1  0
 10 11  2  0
 11 12  1  0
 12 13  2  0
 12 14  1  0
 14 15  1  0
 15 16  1  0
 16 17  1  0
 17 18  1  0
 18 19  1  0
 19 20  1  0
 20 21  1  0
 21 22  1  0
 22 23  1  0
 11  4  1  0
 23 16  1  0
 23 19  1  0
M  END
>  <pIC50>  (127) 
5.28

>  <ChEMBL_ID>  (127) 
CHEMBL201019

>  <document_journal>  (127) 
J. Med. Chem.

>  <bao_endpoint>  (127) 
BAO_0000190

>  <potential_duplicate>  (127) 
False

>  <uo_units>  (127) 
UO_0000065

>  <canonical_smiles>  (127) 
CCOc1cc(N)c(Cl)cc1C(=O)NC[C@@H]2CCN3CCC[C@@H]23

>  <parent_molecule_chembl_id>  (127) 
CHEMBL201019

>  <assay_type>  (127) 
B

>  <src_id>  (127) 
1

>  <ligand_efficiency>  (127) 
{u'le': u'0.31', u'bei': u'15.62', u'sei': u'7.81', u'lle': u'3.26'}

>  <standard_flag>  (127) 
True

>  <molecule_chembl_id>  (127) 
CHEMBL201019

>  <target_organism>  (127) 
Homo sapiens

>  <standard_units>  (127) 
nM

>  <record_id>  (127) 
423714

>  <document_chembl_id>  (127) 
CHEMBL1149398

>  <bao_format>  (127) 
BAO_0000357

>  <data_validity_description>  (127) 
None

>  <activity_id>  (127) 
1676715

>  <standard_type>  (127) 
IC50

>  <target_chembl_id>  (127) 
CHEMBL217

>  <data_validity_comment>  (127) 
None

>  <published_value>  (127) 
5300

>  <document_year>  (127) 
2006

>  <target_pref_name>  (127) 
Dopamine D2 receptor

>  <assay_chembl_id>  (127) 
CHEMBL858805

>  <standard_relation>  (127) 
=

>  <assay_description>  (127) 
Binding affinity to dopamine receptor D2

>  <published_relation>  (127) 
=

>  <standard_value>  (127) 
5300

>  <qudt_units>  (127) 
http://www.openphacts.org/units/Nanomolar

>  <target_tax_id>  (127) 
9606

>  <bao_label>  (127) 
single protein format

>  <published_units>  (127) 
nM

>  <pchembl_value>  (127) 
5.28

>  <published_type>  (127) 
IC50

>  <activity_comment>  (127) 
None

$$$$

     RDKit          

 22 24  0  0  0  0  0  0  0  0999 V2000
    0.0000    0.0000    0.0000 C   0  0  0  0  0  0  0  0  0  0  0  0
    0.0000    0.0000    0.0000 O   0  0  0  0  0  0  0  0  0  0  0  0
    0.0000    0.0000    0.0000 C   0  0  0  0  0  0  0  0  0  0  0  0
    0.0000    0.0000    0.0000 C   0  0  0  0  0  0  0  0  0  0  0  0
    0.0000    0.0000    0.0000 C   0  0  0  0  0  0  0  0  0  0  0  0
    0.0000    0.0000    0.0000 N   0  0  0  0  0  0  0  0  0  0  0  0
    0.0000    0.0000    0.0000 C   0  0  0  0  0  0  0  0  0  0  0  0
    0.0000    0.0000    0.0000 Cl  0  0  0  0  0  0  0  0  0  0  0  0
    0.0000    0.0000    0.0000 C   0  0  0  0  0  0  0  0  0  0  0  0
    0.0000    0.0000    0.0000 C   0  0  0  0  0  0  0  0  0  0  0  0
    0.0000    0.0000    0.0000 C   0  0  0  0  0  0  0  0  0  0  0  0
    0.0000    0.0000    0.0000 O   0  0  0  0  0  0  0  0  0  0  0  0
    0.0000    0.0000    0.0000 N   0  0  0  0  0  0  0  0  0  0  0  0
    0.0000    0.0000    0.0000 C   0  0  0  0  0  0  0  0  0  0  0  0
    0.0000    0.0000    0.0000 C   0  0  0  0  0  0  0  0  0  0  0  0
    0.0000    0.0000    0.0000 C   0  0  0  0  0  0  0  0  0  0  0  0
    0.0000    0.0000    0.0000 C   0  0  0  0  0  0  0  0  0  0  0  0
    0.0000    0.0000    0.0000 N   0  0  0  0  0  0  0  0  0  0  0  0
    0.0000    0.0000    0.0000 C   0  0  0  0  0  0  0  0  0  0  0  0
    0.0000    0.0000    0.0000 C   0  0  0  0  0  0  0  0  0  0  0  0
    0.0000    0.0000    0.0000 C   0  0  0  0  0  0  0  0  0  0  0  0
    0.0000    0.0000    0.0000 C   0  0  0  0  0  0  0  0  0  0  0  0
  1  2  1  0
  2  3  1  0
  3  4  2  0
  4  5  1  0
  5  6  1  0
  5  7  2  0
  7  8  1  0
  7  9  1  0
  9 10  2  0
 10 11  1  0
 11 12  2  0
 11 13  1  0
 13 14  1  0
 14 15  1  0
 15 16  1  0
 16 17  1  0
 17 18  1  0
 18 19  1  0
 19 20  1  0
 20 21  1  0
 21 22  1  0
 10  3  1  0
 22 15  1  0
 22 18  1  0
M  END
>  <pIC50>  (128) 
5.41

>  <ChEMBL_ID>  (128) 
CHEMBL37333

>  <document_journal>  (128) 
J. Med. Chem.

>  <bao_endpoint>  (128) 
BAO_0000190

>  <potential_duplicate>  (128) 
False

>  <uo_units>  (128) 
UO_0000065

>  <canonical_smiles>  (128) 
COc1cc(N)c(Cl)cc1C(=O)NC[C@H]2CCN3CCC[C@H]23

>  <parent_molecule_chembl_id>  (128) 
CHEMBL37333

>  <assay_type>  (128) 
B

>  <src_id>  (128) 
1

>  <ligand_efficiency>  (128) 
{u'le': u'0.34', u'bei': u'16.7', u'sei': u'8', u'lle': u'3.74'}

>  <standard_flag>  (128) 
True

>  <molecule_chembl_id>  (128) 
CHEMBL37333

>  <target_organism>  (128) 
Homo sapiens

>  <standard_units>  (128) 
nM

>  <record_id>  (128) 
423713

>  <document_chembl_id>  (128) 
CHEMBL1149398

>  <bao_format>  (128) 
BAO_0000357

>  <data_validity_description>  (128) 
None

>  <activity_id>  (128) 
1676716

>  <standard_type>  (128) 
IC50

>  <target_chembl_id>  (128) 
CHEMBL217

>  <data_validity_comment>  (128) 
None

>  <published_value>  (128) 
3900

>  <document_year>  (128) 
2006

>  <target_pref_name>  (128) 
Dopamine D2 receptor

>  <assay_chembl_id>  (128) 
CHEMBL858805

>  <standard_relation>  (128) 
=

>  <assay_description>  (128) 
Binding affinity to dopamine receptor D2

>  <published_relation>  (128) 
=

>  <standard_value>  (128) 
3900

>  <qudt_units>  (128) 
http://www.openphacts.org/units/Nanomolar

>  <target_tax_id>  (128) 
9606

>  <bao_label>  (128) 
single protein format

>  <published_units>  (128) 
nM

>  <pchembl_value>  (128) 
5.41

>  <published_type>  (128) 
IC50

>  <activity_comment>  (128) 
None

$$$$

     RDKit          

 32 34  0  0  0  0  0  0  0  0999 V2000
    0.0000    0.0000    0.0000 C   0  0  0  0  0  0  0  0  0  0  0  0
    0.0000    0.0000    0.0000 O   0  0  0  0  0  0  0  0  0  0  0  0
    0.0000    0.0000    0.0000 C   0  0  0  0  0  0  0  0  0  0  0  0
    0.0000    0.0000    0.0000 C   0  0  0  0  0  0  0  0  0  0  0  0
    0.0000    0.0000    0.0000 N   0  0  0  0  0  0  0  0  0  0  0  0
    0.0000    0.0000    0.0000 C   0  0  0  0  0  0  0  0  0  0  0  0
    0.0000    0.0000    0.0000 C   0  0  0  0  0  0  0  0  0  0  0  0
    0.0000    0.0000    0.0000 C   0  0  0  0  0  0  0  0  0  0  0  0
    0.0000    0.0000    0.0000 O   0  0  0  0  0  0  0  0  0  0  0  0
    0.0000    0.0000    0.0000 C   0  0  0  0  0  0  0  0  0  0  0  0
    0.0000    0.0000    0.0000 C   0  0  0  0  0  0  0  0  0  0  0  0
    0.0000    0.0000    0.0000 C   0  0  0  0  0  0  0  0  0  0  0  0
    0.0000    0.0000    0.0000 C   0  0  0  0  0  0  0  0  0  0  0  0
    0.0000    0.0000    0.0000 F   0  0  0  0  0  0  0  0  0  0  0  0
    0.0000    0.0000    0.0000 C   0  0  0  0  0  0  0  0  0  0  0  0
    0.0000    0.0000    0.0000 C   0  0  0  0  0  0  0  0  0  0  0  0
    0.0000    0.0000    0.0000 C   0  0  0  0  0  0  0  0  0  0  0  0
    0.0000    0.0000    0.0000 C   0  0  0  0  0  0  0  0  0  0  0  0
    0.0000    0.0000    0.0000 C   0  0  0  0  0  0  0  0  0  0  0  0
    0.0000    0.0000    0.0000 N   0  0  0  0  0  0  0  0  0  0  0  0
    0.0000    0.0000    0.0000 C   0  0  0  0  0  0  0  0  0  0  0  0
    0.0000    0.0000    0.0000 O   0  0  0  0  0  0  0  0  0  0  0  0
    0.0000    0.0000    0.0000 C   0  0  0  0  0  0  0  0  0  0  0  0
    0.0000    0.0000    0.0000 C   0  0  0  0  0  0  0  0  0  0  0  0
    0.0000    0.0000    0.0000 C   0  0  0  0  0  0  0  0  0  0  0  0
    0.0000    0.0000    0.0000 Cl  0  0  0  0  0  0  0  0  0  0  0  0
    0.0000    0.0000    0.0000 C   0  0  0  0  0  0  0  0  0  0  0  0
    0.0000    0.0000    0.0000 N   0  0  0  0  0  0  0  0  0  0  0  0
    0.0000    0.0000    0.0000 C   0  0  0  0  0  0  0  0  0  0  0  0
    0.0000    0.0000    0.0000 C   0  0  0  0  0  0  0  0  0  0  0  0
    0.0000    0.0000    0.0000 O   0  0  0  0  0  0  0  0  0  0  0  0
    0.0000    0.0000    0.0000 C   0  0  0  0  0  0  0  0  0  0  0  0
  1  2  1  0
  2  3  1  0
  3  4  1  0
  4  5  1  0
  5  6  1  0
  6  7  1  0
  7  8  1  0
  8  9  1  0
  9 10  1  0
 10 11  2  0
 11 12  1  0
 12 13  2  0
 13 14  1  0
 13 15  1  0
 15 16  2  0
  5 17  1  0
 17 18  1  0
 18 19  1  0
 19 20  1  0
 20 21  1  0
 21 22  2  0
 21 23  1  0
 23 24  2  0
 24 25  1  0
 25 26  1  0
 25 27  2  0
 27 28  1  0
 27 29  1  0
 29 30  2  0
 30 31  1  0
 31 32  1  0
 19  3  1  0
 16 10  1  0
 30 23  1  0
M  END
>  <pIC50>  (129) 
6.485

>  <ChEMBL_ID>  (129) 
CHEMBL1729

>  <document_journal>  (129) 
J. Med. Chem.

>  <bao_endpoint>  (129) 
BAO_0000190

>  <potential_duplicate>  (129) 
False

>  <uo_units>  (129) 
UO_0000065

>  <canonical_smiles>  (129) 
COC1CN(CCCOc2ccc(F)cc2)CCC1NC(=O)c3cc(Cl)c(N)cc3OC

>  <parent_molecule_chembl_id>  (129) 
CHEMBL1729

>  <assay_type>  (129) 
B

>  <src_id>  (129) 
1

>  <ligand_efficiency>  (129) 
{u'le': u'0.28', u'bei': u'14.26', u'sei': u'7.72', u'lle': u'3.85'}

>  <standard_flag>  (129) 
True

>  <molecule_chembl_id>  (129) 
CHEMBL1729

>  <target_organism>  (129) 
Homo sapiens

>  <standard_units>  (129) 
nM

>  <record_id>  (129) 
423731

>  <document_chembl_id>  (129) 
CHEMBL1149398

>  <bao_format>  (129) 
BAO_0000357

>  <data_validity_description>  (129) 
None

>  <activity_id>  (129) 
1676740

>  <standard_type>  (129) 
IC50

>  <target_chembl_id>  (129) 
CHEMBL217

>  <data_validity_comment>  (129) 
None

>  <published_value>  (129) 
227

>  <document_year>  (129) 
2006

>  <target_pref_name>  (129) 
Dopamine D2 receptor

>  <assay_chembl_id>  (129) 
CHEMBL858805

>  <standard_relation>  (129) 
=

>  <assay_description>  (129) 
Binding affinity to dopamine receptor D2

>  <published_relation>  (129) 
=

>  <standard_value>  (129) 
227

>  <qudt_units>  (129) 
http://www.openphacts.org/units/Nanomolar

>  <target_tax_id>  (129) 
9606

>  <bao_label>  (129) 
single protein format

>  <published_units>  (129) 
nM

>  <pchembl_value>  (129) 
6.64

>  <published_type>  (129) 
IC50

>  <activity_comment>  (129) 
None

$$$$

     RDKit          

 34 38  0  0  0  0  0  0  0  0999 V2000
    0.0000    0.0000    0.0000 C   0  0  0  0  0  0  0  0  0  0  0  0
    0.0000    0.0000    0.0000 O   0  0  0  0  0  0  0  0  0  0  0  0
    0.0000    0.0000    0.0000 C   0  0  0  0  0  0  0  0  0  0  0  0
    0.0000    0.0000    0.0000 C   0  0  0  0  0  0  0  0  0  0  0  0
    0.0000    0.0000    0.0000 C   0  0  0  0  0  0  0  0  0  0  0  0
    0.0000    0.0000    0.0000 C   0  0  0  0  0  0  0  0  0  0  0  0
    0.0000    0.0000    0.0000 C   0  0  0  0  0  0  0  0  0  0  0  0
    0.0000    0.0000    0.0000 C   0  0  0  0  0  0  0  0  0  0  0  0
    0.0000    0.0000    0.0000 N   0  0  0  0  0  0  0  0  0  0  0  0
    0.0000    0.0000    0.0000 C   0  0  0  0  0  0  0  0  0  0  0  0
    0.0000    0.0000    0.0000 C   0  0  0  0  0  0  0  0  0  0  0  0
    0.0000    0.0000    0.0000 N   0  0  0  0  0  0  0  0  0  0  0  0
    0.0000    0.0000    0.0000 C   0  0  0  0  0  0  0  0  0  0  0  0
    0.0000    0.0000    0.0000 C   0  0  0  0  0  0  0  0  0  0  0  0
    0.0000    0.0000    0.0000 C   0  0  0  0  0  0  0  0  0  0  0  0
    0.0000    0.0000    0.0000 C   0  0  0  0  0  0  0  0  0  0  0  0
    0.0000    0.0000    0.0000 N   0  0  0  0  0  0  0  0  0  0  0  0
    0.0000    0.0000    0.0000 C   0  0  0  0  0  0  0  0  0  0  0  0
    0.0000    0.0000    0.0000 O   0  0  0  0  0  0  0  0  0  0  0  0
    0.0000    0.0000    0.0000 C   0  0  0  0  0  0  0  0  0  0  0  0
    0.0000    0.0000    0.0000 C   0  0  0  0  0  0  0  0  0  0  0  0
    0.0000    0.0000    0.0000 C   0  0  0  0  0  0  0  0  0  0  0  0
    0.0000    0.0000    0.0000 C   0  0  0  0  0  0  0  0  0  0  0  0
    0.0000    0.0000    0.0000 C   0  0  0  0  0  0  0  0  0  0  0  0
    0.0000    0.0000    0.0000 C   0  0  0  0  0  0  0  0  0  0  0  0
    0.0000    0.0000    0.0000 C   0  0  0  0  0  0  0  0  0  0  0  0
    0.0000    0.0000    0.0000 C   0  0  0  0  0  0  0  0  0  0  0  0
    0.0000    0.0000    0.0000 C   0  0  0  0  0  0  0  0  0  0  0  0
    0.0000    0.0000    0.0000 C   0  0  0  0  0  0  0  0  0  0  0  0
    0.0000    0.0000    0.0000 C   0  0  0  0  0  0  0  0  0  0  0  0
    0.0000    0.0000    0.0000 C   0  0  0  0  0  0  0  0  0  0  0  0
    0.0000    0.0000    0.0000 C   0  0  0  0  0  0  0  0  0  0  0  0
    0.0000    0.0000    0.0000 C   0  0  0  0  0  0  0  0  0  0  0  0
    0.0000    0.0000    0.0000 C   0  0  0  0  0  0  0  0  0  0  0  0
  1  2  1  0
  2  3  1  0
  3  4  2  0
  4  5  1  0
  5  6  2  0
  6  7  1  0
  7  8  2  0
  8  9  1  0
  9 10  1  0
 10 11  1  0
 11 12  1  0
 12 13  1  0
 13 14  1  0
 14 15  2  0
 15 16  1  0
 16 17  1  0
 17 18  1  0
 18 19  2  0
 18 20  1  0
 20 21  2  0
 21 22  1  0
 22 23  2  0
 23 24  1  0
 24 25  1  0
 25 26  1  0
 26 27  2  0
 27 28  1  0
 28 29  2  0
 29 30  1  0
 30 31  2  0
 24 32  2  0
 12 33  1  0
 33 34  1  0
  8  3  1  0
 34  9  1  0
 32 20  1  0
 31 23  1  0
 31 26  1  0
M  END
>  <pIC50>  (130) 
6.75

>  <ChEMBL_ID>  (130) 
CHEMBL244989

>  <document_journal>  (130) 
J. Med. Chem.

>  <bao_endpoint>  (130) 
BAO_0000190

>  <potential_duplicate>  (130) 
False

>  <uo_units>  (130) 
UO_0000065

>  <canonical_smiles>  (130) 
COc1ccccc1N2CCN(C\C=C\CNC(=O)c3ccc4c(Cc5ccccc45)c3)CC2

>  <parent_molecule_chembl_id>  (130) 
CHEMBL244989

>  <assay_type>  (130) 
F

>  <src_id>  (130) 
1

>  <ligand_efficiency>  (130) 
None

>  <standard_flag>  (130) 
True

>  <molecule_chembl_id>  (130) 
CHEMBL244989

>  <target_organism>  (130) 
Homo sapiens

>  <standard_units>  (130) 
nM

>  <record_id>  (130) 
654393

>  <document_chembl_id>  (130) 
CHEMBL1148745

>  <bao_format>  (130) 
BAO_0000219

>  <data_validity_description>  (130) 
None

>  <activity_id>  (130) 
1920684

>  <standard_type>  (130) 
IC50

>  <target_chembl_id>  (130) 
CHEMBL217

>  <data_validity_comment>  (130) 
None

>  <published_value>  (130) 
179

>  <document_year>  (130) 
2007

>  <target_pref_name>  (130) 
Dopamine D2 receptor

>  <assay_chembl_id>  (130) 
CHEMBL895651

>  <standard_relation>  (130) 
=

>  <assay_description>  (130) 
Antagonist activity at human dopamine D2 receptor expressed in HEK293 cells by mitogenesis assay

>  <published_relation>  (130) 
=

>  <standard_value>  (130) 
179

>  <qudt_units>  (130) 
http://www.openphacts.org/units/Nanomolar

>  <target_tax_id>  (130) 
9606

>  <bao_label>  (130) 
cell-based format

>  <published_units>  (130) 
nM

>  <pchembl_value>  (130) 
6.75

>  <published_type>  (130) 
IC50

>  <activity_comment>  (130) 
None

$$$$

     RDKit          

 33 36  0  0  0  0  0  0  0  0999 V2000
    0.0000    0.0000    0.0000 C   0  0  0  0  0  0  0  0  0  0  0  0
    0.0000    0.0000    0.0000 O   0  0  0  0  0  0  0  0  0  0  0  0
    0.0000    0.0000    0.0000 C   0  0  0  0  0  0  0  0  0  0  0  0
    0.0000    0.0000    0.0000 C   0  0  0  0  0  0  0  0  0  0  0  0
    0.0000    0.0000    0.0000 C   0  0  0  0  0  0  0  0  0  0  0  0
    0.0000    0.0000    0.0000 C   0  0  0  0  0  0  0  0  0  0  0  0
    0.0000    0.0000    0.0000 C   0  0  0  0  0  0  0  0  0  0  0  0
    0.0000    0.0000    0.0000 C   0  0  0  0  0  0  0  0  0  0  0  0
    0.0000    0.0000    0.0000 N   0  0  0  0  0  0  0  0  0  0  0  0
    0.0000    0.0000    0.0000 C   0  0  0  0  0  0  0  0  0  0  0  0
    0.0000    0.0000    0.0000 C   0  0  0  0  0  0  0  0  0  0  0  0
    0.0000    0.0000    0.0000 N   0  0  0  0  0  0  0  0  0  0  0  0
    0.0000    0.0000    0.0000 C   0  0  0  0  0  0  0  0  0  0  0  0
    0.0000    0.0000    0.0000 C   0  0  0  0  0  0  0  0  0  0  0  0
    0.0000    0.0000    0.0000 C   0  0  0  0  0  0  0  0  0  0  0  0
    0.0000    0.0000    0.0000 C   0  0  0  0  0  0  0  0  0  0  0  0
    0.0000    0.0000    0.0000 N   0  0  0  0  0  0  0  0  0  0  0  0
    0.0000    0.0000    0.0000 C   0  0  0  0  0  0  0  0  0  0  0  0
    0.0000    0.0000    0.0000 O   0  0  0  0  0  0  0  0  0  0  0  0
    0.0000    0.0000    0.0000 C   0  0  0  0  0  0  0  0  0  0  0  0
    0.0000    0.0000    0.0000 C   0  0  0  0  0  0  0  0  0  0  0  0
    0.0000    0.0000    0.0000 C   0  0  0  0  0  0  0  0  0  0  0  0
    0.0000    0.0000    0.0000 C   0  0  0  0  0  0  0  0  0  0  0  0
    0.0000    0.0000    0.0000 C   0  0  0  0  0  0  0  0  0  0  0  0
    0.0000    0.0000    0.0000 C   0  0  0  0  0  0  0  0  0  0  0  0
    0.0000    0.0000    0.0000 C   0  0  0  0  0  0  0  0  0  0  0  0
    0.0000    0.0000    0.0000 C   0  0  0  0  0  0  0  0  0  0  0  0
    0.0000    0.0000    0.0000 C   0  0  0  0  0  0  0  0  0  0  0  0
    0.0000    0.0000    0.0000 C   0  0  0  0  0  0  0  0  0  0  0  0
    0.0000    0.0000    0.0000 C   0  0  0  0  0  0  0  0  0  0  0  0
    0.0000    0.0000    0.0000 N   0  0  0  0  0  0  0  0  0  0  0  0
    0.0000    0.0000    0.0000 C   0  0  0  0  0  0  0  0  0  0  0  0
    0.0000    0.0000    0.0000 C   0  0  0  0  0  0  0  0  0  0  0  0
  1  2  1  0
  2  3  1  0
  3  4  2  0
  4  5  1  0
  5  6  2  0
  6  7  1  0
  7  8  2  0
  8  9  1  0
  9 10  1  0
 10 11  1  0
 11 12  1  0
 12 13  1  0
 13 14  1  0
 14 15  2  0
 15 16  1  0
 16 17  1  0
 17 18  1  0
 18 19  2  0
 18 20  1  0
 20 21  2  0
 21 22  1  0
 22 23  2  0
 23 24  1  0
 24 25  2  0
 23 26  1  0
 26 27  2  0
 27 28  1  0
 28 29  2  0
 29 30  1  0
 30 31  2  0
 12 32  1  0
 32 33  1  0
  8  3  1  0
 33  9  1  0
 25 20  1  0
 31 26  1  0
M  END
>  <pIC50>  (131) 
6.76

>  <ChEMBL_ID>  (131) 
CHEMBL394541

>  <document_journal>  (131) 
J. Med. Chem.

>  <bao_endpoint>  (131) 
BAO_0000190

>  <potential_duplicate>  (131) 
False

>  <uo_units>  (131) 
UO_0000065

>  <canonical_smiles>  (131) 
COc1ccccc1N2CCN(C\C=C\CNC(=O)c3ccc(cc3)c4ccccn4)CC2

>  <parent_molecule_chembl_id>  (131) 
CHEMBL394541

>  <assay_type>  (131) 
F

>  <src_id>  (131) 
1

>  <ligand_efficiency>  (131) 
None

>  <standard_flag>  (131) 
True

>  <molecule_chembl_id>  (131) 
CHEMBL394541

>  <target_organism>  (131) 
Homo sapiens

>  <standard_units>  (131) 
nM

>  <record_id>  (131) 
654392

>  <document_chembl_id>  (131) 
CHEMBL1148745

>  <bao_format>  (131) 
BAO_0000219

>  <data_validity_description>  (131) 
None

>  <activity_id>  (131) 
1920685

>  <standard_type>  (131) 
IC50

>  <target_chembl_id>  (131) 
CHEMBL217

>  <data_validity_comment>  (131) 
None

>  <published_value>  (131) 
175

>  <document_year>  (131) 
2007

>  <target_pref_name>  (131) 
Dopamine D2 receptor

>  <assay_chembl_id>  (131) 
CHEMBL895651

>  <standard_relation>  (131) 
=

>  <assay_description>  (131) 
Antagonist activity at human dopamine D2 receptor expressed in HEK293 cells by mitogenesis assay

>  <published_relation>  (131) 
=

>  <standard_value>  (131) 
175

>  <qudt_units>  (131) 
http://www.openphacts.org/units/Nanomolar

>  <target_tax_id>  (131) 
9606

>  <bao_label>  (131) 
cell-based format

>  <published_units>  (131) 
nM

>  <pchembl_value>  (131) 
6.76

>  <published_type>  (131) 
IC50

>  <activity_comment>  (131) 
None

$$$$

     RDKit          

 34 37  0  0  0  0  0  0  0  0999 V2000
    0.0000    0.0000    0.0000 O   0  0  0  0  0  0  0  0  0  0  0  0
    0.0000    0.0000    0.0000 N   0  0  0  0  0  0  0  0  0  0  0  0
    0.0000    0.0000    0.0000 C   0  0  0  0  0  0  0  0  0  0  0  0
    0.0000    0.0000    0.0000 C   0  0  0  0  0  0  0  0  0  0  0  0
    0.0000    0.0000    0.0000 C   0  0  0  0  0  0  0  0  0  0  0  0
    0.0000    0.0000    0.0000 C   0  0  0  0  0  0  0  0  0  0  0  0
    0.0000    0.0000    0.0000 C   0  0  0  0  0  0  0  0  0  0  0  0
    0.0000    0.0000    0.0000 C   0  0  0  0  0  0  0  0  0  0  0  0
    0.0000    0.0000    0.0000 C   0  0  0  0  0  0  0  0  0  0  0  0
    0.0000    0.0000    0.0000 C   0  0  0  0  0  0  0  0  0  0  0  0
    0.0000    0.0000    0.0000 C   0  0  0  0  0  0  0  0  0  0  0  0
    0.0000    0.0000    0.0000 C   0  0  0  0  0  0  0  0  0  0  0  0
    0.0000    0.0000    0.0000 C   0  0  0  0  0  0  0  0  0  0  0  0
    0.0000    0.0000    0.0000 C   0  0  0  0  0  0  0  0  0  0  0  0
    0.0000    0.0000    0.0000 O   0  0  0  0  0  0  0  0  0  0  0  0
    0.0000    0.0000    0.0000 N   0  0  0  0  0  0  0  0  0  0  0  0
    0.0000    0.0000    0.0000 C   0  0  0  0  0  0  0  0  0  0  0  0
    0.0000    0.0000    0.0000 C   0  0  0  0  0  0  0  0  0  0  0  0
    0.0000    0.0000    0.0000 C   0  0  0  0  0  0  0  0  0  0  0  0
    0.0000    0.0000    0.0000 C   0  0  0  0  0  0  0  0  0  0  0  0
    0.0000    0.0000    0.0000 N   0  0  0  0  0  0  0  0  0  0  0  0
    0.0000    0.0000    0.0000 C   0  0  0  0  0  0  0  0  0  0  0  0
    0.0000    0.0000    0.0000 C   0  0  0  0  0  0  0  0  0  0  0  0
    0.0000    0.0000    0.0000 N   0  0  0  0  0  0  0  0  0  0  0  0
    0.0000    0.0000    0.0000 C   0  0  0  0  0  0  0  0  0  0  0  0
    0.0000    0.0000    0.0000 C   0  0  0  0  0  0  0  0  0  0  0  0
    0.0000    0.0000    0.0000 C   0  0  0  0  0  0  0  0  0  0  0  0
    0.0000    0.0000    0.0000 C   0  0  0  0  0  0  0  0  0  0  0  0
    0.0000    0.0000    0.0000 C   0  0  0  0  0  0  0  0  0  0  0  0
    0.0000    0.0000    0.0000 C   0  0  0  0  0  0  0  0  0  0  0  0
    0.0000    0.0000    0.0000 C   0  0  0  0  0  0  0  0  0  0  0  0
    0.0000    0.0000    0.0000 Cl  0  0  0  0  0  0  0  0  0  0  0  0
    0.0000    0.0000    0.0000 C   0  0  0  0  0  0  0  0  0  0  0  0
    0.0000    0.0000    0.0000 Cl  0  0  0  0  0  0  0  0  0  0  0  0
  1  2  1  0
  2  3  2  0
  3  4  1  0
  4  5  2  0
  5  6  1  0
  6  7  2  0
  7  8  1  0
  8  9  2  0
  9 10  1  0
 10 11  2  0
 11 12  1  0
 12 13  2  0
 11 14  1  0
 14 15  2  0
 14 16  1  0
 16 17  1  0
 17 18  1  0
 18 19  2  0
 19 20  1  0
 20 21  1  0
 21 22  1  0
 22 23  1  0
 23 24  1  0
 24 25  1  0
 25 26  1  0
 24 27  1  0
 27 28  2  0
 28 29  1  0
 29 30  2  0
 30 31  1  0
 31 32  1  0
 31 33  2  0
 33 34  1  0
  7  2  1  0
 13  8  1  0
 26 21  1  0
 33 27  1  0
M  CHG  2   1  -1   2   1
M  END
>  <pIC50>  (132) 
7.64

>  <ChEMBL_ID>  (132) 
CHEMBL244774

>  <document_journal>  (132) 
J. Med. Chem.

>  <bao_endpoint>  (132) 
BAO_0000190

>  <potential_duplicate>  (132) 
False

>  <uo_units>  (132) 
UO_0000065

>  <canonical_smiles>  (132) 
[O-][n+]1ccccc1c2ccc(cc2)C(=O)NC\C=C\CN3CCN(CC3)c4cccc(Cl)c4Cl

>  <parent_molecule_chembl_id>  (132) 
CHEMBL244774

>  <assay_type>  (132) 
F

>  <src_id>  (132) 
1

>  <ligand_efficiency>  (132) 
None

>  <standard_flag>  (132) 
True

>  <molecule_chembl_id>  (132) 
CHEMBL244774

>  <target_organism>  (132) 
Homo sapiens

>  <standard_units>  (132) 
nM

>  <record_id>  (132) 
654390

>  <document_chembl_id>  (132) 
CHEMBL1148745

>  <bao_format>  (132) 
BAO_0000219

>  <data_validity_description>  (132) 
None

>  <activity_id>  (132) 
1920686

>  <standard_type>  (132) 
IC50

>  <target_chembl_id>  (132) 
CHEMBL217

>  <data_validity_comment>  (132) 
None

>  <published_value>  (132) 
22.9

>  <document_year>  (132) 
2007

>  <target_pref_name>  (132) 
Dopamine D2 receptor

>  <assay_chembl_id>  (132) 
CHEMBL895651

>  <standard_relation>  (132) 
=

>  <assay_description>  (132) 
Antagonist activity at human dopamine D2 receptor expressed in HEK293 cells by mitogenesis assay

>  <published_relation>  (132) 
=

>  <standard_value>  (132) 
22.9

>  <qudt_units>  (132) 
http://www.openphacts.org/units/Nanomolar

>  <target_tax_id>  (132) 
9606

>  <bao_label>  (132) 
cell-based format

>  <published_units>  (132) 
nM

>  <pchembl_value>  (132) 
7.64

>  <published_type>  (132) 
IC50

>  <activity_comment>  (132) 
None

$$$$

     RDKit          

 34 37  0  0  0  0  0  0  0  0999 V2000
    0.0000    0.0000    0.0000 C   0  0  0  0  0  0  0  0  0  0  0  0
    0.0000    0.0000    0.0000 C   0  0  0  0  0  0  0  0  0  0  0  0
    0.0000    0.0000    0.0000 C   0  0  0  0  0  0  0  0  0  0  0  0
    0.0000    0.0000    0.0000 C   0  0  0  0  0  0  0  0  0  0  0  0
    0.0000    0.0000    0.0000 C   0  0  0  0  0  0  0  0  0  0  0  0
    0.0000    0.0000    0.0000 N   0  0  0  0  0  0  0  0  0  0  0  0
    0.0000    0.0000    0.0000 C   0  0  0  0  0  0  0  0  0  0  0  0
    0.0000    0.0000    0.0000 C   0  0  0  0  0  0  0  0  0  0  0  0
    0.0000    0.0000    0.0000 C   0  0  0  0  0  0  0  0  0  0  0  0
    0.0000    0.0000    0.0000 C   0  0  0  0  0  0  0  0  0  0  0  0
    0.0000    0.0000    0.0000 C   0  0  0  0  0  0  0  0  0  0  0  0
    0.0000    0.0000    0.0000 C   0  0  0  0  0  0  0  0  0  0  0  0
    0.0000    0.0000    0.0000 C   0  0  0  0  0  0  0  0  0  0  0  0
    0.0000    0.0000    0.0000 C   0  0  0  0  0  0  0  0  0  0  0  0
    0.0000    0.0000    0.0000 O   0  0  0  0  0  0  0  0  0  0  0  0
    0.0000    0.0000    0.0000 N   0  0  0  0  0  0  0  0  0  0  0  0
    0.0000    0.0000    0.0000 C   0  0  0  0  0  0  0  0  0  0  0  0
    0.0000    0.0000    0.0000 C   0  0  0  0  0  0  0  0  0  0  0  0
    0.0000    0.0000    0.0000 C   0  0  0  0  0  0  0  0  0  0  0  0
    0.0000    0.0000    0.0000 C   0  0  0  0  0  0  0  0  0  0  0  0
    0.0000    0.0000    0.0000 N   0  0  0  0  0  0  0  0  0  0  0  0
    0.0000    0.0000    0.0000 C   0  0  0  0  0  0  0  0  0  0  0  0
    0.0000    0.0000    0.0000 C   0  0  0  0  0  0  0  0  0  0  0  0
    0.0000    0.0000    0.0000 N   0  0  0  0  0  0  0  0  0  0  0  0
    0.0000    0.0000    0.0000 C   0  0  0  0  0  0  0  0  0  0  0  0
    0.0000    0.0000    0.0000 C   0  0  0  0  0  0  0  0  0  0  0  0
    0.0000    0.0000    0.0000 C   0  0  0  0  0  0  0  0  0  0  0  0
    0.0000    0.0000    0.0000 C   0  0  0  0  0  0  0  0  0  0  0  0
    0.0000    0.0000    0.0000 C   0  0  0  0  0  0  0  0  0  0  0  0
    0.0000    0.0000    0.0000 C   0  0  0  0  0  0  0  0  0  0  0  0
    0.0000    0.0000    0.0000 C   0  0  0  0  0  0  0  0  0  0  0  0
    0.0000    0.0000    0.0000 Cl  0  0  0  0  0  0  0  0  0  0  0  0
    0.0000    0.0000    0.0000 C   0  0  0  0  0  0  0  0  0  0  0  0
    0.0000    0.0000    0.0000 Cl  0  0  0  0  0  0  0  0  0  0  0  0
  1  2  1  0
  2  3  2  0
  3  4  1  0
  4  5  2  0
  5  6  1  0
  6  7  2  0
  7  8  1  0
  8  9  2  0
  9 10  1  0
 10 11  2  0
 11 12  1  0
 12 13  2  0
 11 14  1  0
 14 15  2  0
 14 16  1  0
 16 17  1  0
 17 18  1  0
 18 19  2  0
 19 20  1  0
 20 21  1  0
 21 22  1  0
 22 23  1  0
 23 24  1  0
 24 25  1  0
 25 26  1  0
 24 27  1  0
 27 28  2  0
 28 29  1  0
 29 30  2  0
 30 31  1  0
 31 32  1  0
 31 33  2  0
 33 34  1  0
  7  2  1  0
 13  8  1  0
 26 21  1  0
 33 27  1  0
M  END
>  <pIC50>  (133) 
6.43

>  <ChEMBL_ID>  (133) 
CHEMBL244773

>  <document_journal>  (133) 
J. Med. Chem.

>  <bao_endpoint>  (133) 
BAO_0000190

>  <potential_duplicate>  (133) 
False

>  <uo_units>  (133) 
UO_0000065

>  <canonical_smiles>  (133) 
Cc1cccnc1c2ccc(cc2)C(=O)NC\C=C\CN3CCN(CC3)c4cccc(Cl)c4Cl

>  <parent_molecule_chembl_id>  (133) 
CHEMBL244773

>  <assay_type>  (133) 
F

>  <src_id>  (133) 
1

>  <ligand_efficiency>  (133) 
None

>  <standard_flag>  (133) 
True

>  <molecule_chembl_id>  (133) 
CHEMBL244773

>  <target_organism>  (133) 
Homo sapiens

>  <standard_units>  (133) 
nM

>  <record_id>  (133) 
654389

>  <document_chembl_id>  (133) 
CHEMBL1148745

>  <bao_format>  (133) 
BAO_0000219

>  <data_validity_description>  (133) 
None

>  <activity_id>  (133) 
1920687

>  <standard_type>  (133) 
IC50

>  <target_chembl_id>  (133) 
CHEMBL217

>  <data_validity_comment>  (133) 
None

>  <published_value>  (133) 
368

>  <document_year>  (133) 
2007

>  <target_pref_name>  (133) 
Dopamine D2 receptor

>  <assay_chembl_id>  (133) 
CHEMBL895651

>  <standard_relation>  (133) 
=

>  <assay_description>  (133) 
Antagonist activity at human dopamine D2 receptor expressed in HEK293 cells by mitogenesis assay

>  <published_relation>  (133) 
=

>  <standard_value>  (133) 
368

>  <qudt_units>  (133) 
http://www.openphacts.org/units/Nanomolar

>  <target_tax_id>  (133) 
9606

>  <bao_label>  (133) 
cell-based format

>  <published_units>  (133) 
nM

>  <pchembl_value>  (133) 
6.43

>  <published_type>  (133) 
IC50

>  <activity_comment>  (133) 
None

$$$$

     RDKit          

 34 37  0  0  0  0  0  0  0  0999 V2000
    0.0000    0.0000    0.0000 C   0  0  0  0  0  0  0  0  0  0  0  0
    0.0000    0.0000    0.0000 C   0  0  0  0  0  0  0  0  0  0  0  0
    0.0000    0.0000    0.0000 C   0  0  0  0  0  0  0  0  0  0  0  0
    0.0000    0.0000    0.0000 C   0  0  0  0  0  0  0  0  0  0  0  0
    0.0000    0.0000    0.0000 C   0  0  0  0  0  0  0  0  0  0  0  0
    0.0000    0.0000    0.0000 C   0  0  0  0  0  0  0  0  0  0  0  0
    0.0000    0.0000    0.0000 N   0  0  0  0  0  0  0  0  0  0  0  0
    0.0000    0.0000    0.0000 C   0  0  0  0  0  0  0  0  0  0  0  0
    0.0000    0.0000    0.0000 C   0  0  0  0  0  0  0  0  0  0  0  0
    0.0000    0.0000    0.0000 C   0  0  0  0  0  0  0  0  0  0  0  0
    0.0000    0.0000    0.0000 C   0  0  0  0  0  0  0  0  0  0  0  0
    0.0000    0.0000    0.0000 C   0  0  0  0  0  0  0  0  0  0  0  0
    0.0000    0.0000    0.0000 C   0  0  0  0  0  0  0  0  0  0  0  0
    0.0000    0.0000    0.0000 C   0  0  0  0  0  0  0  0  0  0  0  0
    0.0000    0.0000    0.0000 O   0  0  0  0  0  0  0  0  0  0  0  0
    0.0000    0.0000    0.0000 N   0  0  0  0  0  0  0  0  0  0  0  0
    0.0000    0.0000    0.0000 C   0  0  0  0  0  0  0  0  0  0  0  0
    0.0000    0.0000    0.0000 C   0  0  0  0  0  0  0  0  0  0  0  0
    0.0000    0.0000    0.0000 C   0  0  0  0  0  0  0  0  0  0  0  0
    0.0000    0.0000    0.0000 C   0  0  0  0  0  0  0  0  0  0  0  0
    0.0000    0.0000    0.0000 N   0  0  0  0  0  0  0  0  0  0  0  0
    0.0000    0.0000    0.0000 C   0  0  0  0  0  0  0  0  0  0  0  0
    0.0000    0.0000    0.0000 C   0  0  0  0  0  0  0  0  0  0  0  0
    0.0000    0.0000    0.0000 N   0  0  0  0  0  0  0  0  0  0  0  0
    0.0000    0.0000    0.0000 C   0  0  0  0  0  0  0  0  0  0  0  0
    0.0000    0.0000    0.0000 C   0  0  0  0  0  0  0  0  0  0  0  0
    0.0000    0.0000    0.0000 C   0  0  0  0  0  0  0  0  0  0  0  0
    0.0000    0.0000    0.0000 C   0  0  0  0  0  0  0  0  0  0  0  0
    0.0000    0.0000    0.0000 C   0  0  0  0  0  0  0  0  0  0  0  0
    0.0000    0.0000    0.0000 C   0  0  0  0  0  0  0  0  0  0  0  0
    0.0000    0.0000    0.0000 C   0  0  0  0  0  0  0  0  0  0  0  0
    0.0000    0.0000    0.0000 Cl  0  0  0  0  0  0  0  0  0  0  0  0
    0.0000    0.0000    0.0000 C   0  0  0  0  0  0  0  0  0  0  0  0
    0.0000    0.0000    0.0000 Cl  0  0  0  0  0  0  0  0  0  0  0  0
  1  2  1  0
  2  3  2  0
  3  4  1  0
  4  5  2  0
  5  6  1  0
  6  7  2  0
  6  8  1  0
  8  9  2  0
  9 10  1  0
 10 11  2  0
 11 12  1  0
 12 13  2  0
 11 14  1  0
 14 15  2  0
 14 16  1  0
 16 17  1  0
 17 18  1  0
 18 19  2  0
 19 20  1  0
 20 21  1  0
 21 22  1  0
 22 23  1  0
 23 24  1  0
 24 25  1  0
 25 26  1  0
 24 27  1  0
 27 28  2  0
 28 29  1  0
 29 30  2  0
 30 31  1  0
 31 32  1  0
 31 33  2  0
 33 34  1  0
  7  2  1  0
 13  8  1  0
 26 21  1  0
 33 27  1  0
M  END
>  <pIC50>  (134) 
5.89

>  <ChEMBL_ID>  (134) 
CHEMBL398175

>  <document_journal>  (134) 
J. Med. Chem.

>  <bao_endpoint>  (134) 
BAO_0000190

>  <potential_duplicate>  (134) 
False

>  <uo_units>  (134) 
UO_0000065

>  <canonical_smiles>  (134) 
Cc1cccc(n1)c2ccc(cc2)C(=O)NC\C=C\CN3CCN(CC3)c4cccc(Cl)c4Cl

>  <parent_molecule_chembl_id>  (134) 
CHEMBL398175

>  <assay_type>  (134) 
F

>  <src_id>  (134) 
1

>  <ligand_efficiency>  (134) 
None

>  <standard_flag>  (134) 
True

>  <molecule_chembl_id>  (134) 
CHEMBL398175

>  <target_organism>  (134) 
Homo sapiens

>  <standard_units>  (134) 
nM

>  <record_id>  (134) 
654388

>  <document_chembl_id>  (134) 
CHEMBL1148745

>  <bao_format>  (134) 
BAO_0000219

>  <data_validity_description>  (134) 
None

>  <activity_id>  (134) 
1920688

>  <standard_type>  (134) 
IC50

>  <target_chembl_id>  (134) 
CHEMBL217

>  <data_validity_comment>  (134) 
None

>  <published_value>  (134) 
1300

>  <document_year>  (134) 
2007

>  <target_pref_name>  (134) 
Dopamine D2 receptor

>  <assay_chembl_id>  (134) 
CHEMBL895651

>  <standard_relation>  (134) 
=

>  <assay_description>  (134) 
Antagonist activity at human dopamine D2 receptor expressed in HEK293 cells by mitogenesis assay

>  <published_relation>  (134) 
=

>  <standard_value>  (134) 
1300

>  <qudt_units>  (134) 
http://www.openphacts.org/units/Nanomolar

>  <target_tax_id>  (134) 
9606

>  <bao_label>  (134) 
cell-based format

>  <published_units>  (134) 
nM

>  <pchembl_value>  (134) 
5.89

>  <published_type>  (134) 
IC50

>  <activity_comment>  (134) 
None

$$$$

     RDKit          

 34 37  0  0  0  0  0  0  0  0999 V2000
    0.0000    0.0000    0.0000 Cl  0  0  0  0  0  0  0  0  0  0  0  0
    0.0000    0.0000    0.0000 C   0  0  0  0  0  0  0  0  0  0  0  0
    0.0000    0.0000    0.0000 C   0  0  0  0  0  0  0  0  0  0  0  0
    0.0000    0.0000    0.0000 C   0  0  0  0  0  0  0  0  0  0  0  0
    0.0000    0.0000    0.0000 C   0  0  0  0  0  0  0  0  0  0  0  0
    0.0000    0.0000    0.0000 C   0  0  0  0  0  0  0  0  0  0  0  0
    0.0000    0.0000    0.0000 N   0  0  0  0  0  0  0  0  0  0  0  0
    0.0000    0.0000    0.0000 C   0  0  0  0  0  0  0  0  0  0  0  0
    0.0000    0.0000    0.0000 C   0  0  0  0  0  0  0  0  0  0  0  0
    0.0000    0.0000    0.0000 N   0  0  0  0  0  0  0  0  0  0  0  0
    0.0000    0.0000    0.0000 C   0  0  0  0  0  0  0  0  0  0  0  0
    0.0000    0.0000    0.0000 C   0  0  0  0  0  0  0  0  0  0  0  0
    0.0000    0.0000    0.0000 C   0  0  0  0  0  0  0  0  0  0  0  0
    0.0000    0.0000    0.0000 C   0  0  0  0  0  0  0  0  0  0  0  0
    0.0000    0.0000    0.0000 N   0  0  0  0  0  0  0  0  0  0  0  0
    0.0000    0.0000    0.0000 C   0  0  0  0  0  0  0  0  0  0  0  0
    0.0000    0.0000    0.0000 O   0  0  0  0  0  0  0  0  0  0  0  0
    0.0000    0.0000    0.0000 C   0  0  0  0  0  0  0  0  0  0  0  0
    0.0000    0.0000    0.0000 C   0  0  0  0  0  0  0  0  0  0  0  0
    0.0000    0.0000    0.0000 C   0  0  0  0  0  0  0  0  0  0  0  0
    0.0000    0.0000    0.0000 C   0  0  0  0  0  0  0  0  0  0  0  0
    0.0000    0.0000    0.0000 C   0  0  0  0  0  0  0  0  0  0  0  0
    0.0000    0.0000    0.0000 C   0  0  0  0  0  0  0  0  0  0  0  0
    0.0000    0.0000    0.0000 C   0  0  0  0  0  0  0  0  0  0  0  0
    0.0000    0.0000    0.0000 C   0  0  0  0  0  0  0  0  0  0  0  0
    0.0000    0.0000    0.0000 C   0  0  0  0  0  0  0  0  0  0  0  0
    0.0000    0.0000    0.0000 C   0  0  0  0  0  0  0  0  0  0  0  0
    0.0000    0.0000    0.0000 C   0  0  0  0  0  0  0  0  0  0  0  0
    0.0000    0.0000    0.0000 O   0  0  0  0  0  0  0  0  0  0  0  0
    0.0000    0.0000    0.0000 N   0  0  0  0  0  0  0  0  0  0  0  0
    0.0000    0.0000    0.0000 C   0  0  0  0  0  0  0  0  0  0  0  0
    0.0000    0.0000    0.0000 C   0  0  0  0  0  0  0  0  0  0  0  0
    0.0000    0.0000    0.0000 C   0  0  0  0  0  0  0  0  0  0  0  0
    0.0000    0.0000    0.0000 Cl  0  0  0  0  0  0  0  0  0  0  0  0
  1  2  1  0
  2  3  2  0
  3  4  1  0
  4  5  2  0
  5  6  1  0
  6  7  1  0
  7  8  1  0
  8  9  1  0
  9 10  1  0
 10 11  1  0
 11 12  1  0
 12 13  2  0
 13 14  1  0
 14 15  1  0
 15 16  1  0
 16 17  2  0
 16 18  1  0
 18 19  2  0
 19 20  1  0
 20 21  2  0
 21 22  1  0
 22 23  2  0
 21 24  1  0
 24 25  2  0
 25 26  1  0
 26 27  2  0
 27 28  1  0
 28 29  2  0
 28 30  1  0
 10 31  1  0
 31 32  1  0
  6 33  2  0
 33 34  1  0
 33  2  1  0
 32  7  1  0
 23 18  1  0
 30 24  1  0
M  END
>  <pIC50>  (135) 
7.39

>  <ChEMBL_ID>  (135) 
CHEMBL244562

>  <document_journal>  (135) 
J. Med. Chem.

>  <bao_endpoint>  (135) 
BAO_0000190

>  <potential_duplicate>  (135) 
False

>  <uo_units>  (135) 
UO_0000065

>  <canonical_smiles>  (135) 
Clc1cccc(N2CCN(C\C=C\CNC(=O)c3ccc(cc3)C4=CC=CC(=O)N4)CC2)c1Cl

>  <parent_molecule_chembl_id>  (135) 
CHEMBL244562

>  <assay_type>  (135) 
F

>  <src_id>  (135) 
1

>  <ligand_efficiency>  (135) 
None

>  <standard_flag>  (135) 
True

>  <molecule_chembl_id>  (135) 
CHEMBL244562

>  <target_organism>  (135) 
Homo sapiens

>  <standard_units>  (135) 
nM

>  <record_id>  (135) 
654387

>  <document_chembl_id>  (135) 
CHEMBL1148745

>  <bao_format>  (135) 
BAO_0000219

>  <data_validity_description>  (135) 
None

>  <activity_id>  (135) 
1920689

>  <standard_type>  (135) 
IC50

>  <target_chembl_id>  (135) 
CHEMBL217

>  <data_validity_comment>  (135) 
None

>  <published_value>  (135) 
41

>  <document_year>  (135) 
2007

>  <target_pref_name>  (135) 
Dopamine D2 receptor

>  <assay_chembl_id>  (135) 
CHEMBL895651

>  <standard_relation>  (135) 
=

>  <assay_description>  (135) 
Antagonist activity at human dopamine D2 receptor expressed in HEK293 cells by mitogenesis assay

>  <published_relation>  (135) 
=

>  <standard_value>  (135) 
41

>  <qudt_units>  (135) 
http://www.openphacts.org/units/Nanomolar

>  <target_tax_id>  (135) 
9606

>  <bao_label>  (135) 
cell-based format

>  <published_units>  (135) 
nM

>  <pchembl_value>  (135) 
7.39

>  <published_type>  (135) 
IC50

>  <activity_comment>  (135) 
None

$$$$

     RDKit          

 33 36  0  0  0  0  0  0  0  0999 V2000
    0.0000    0.0000    0.0000 C   0  0  0  0  0  0  0  0  0  0  0  0
    0.0000    0.0000    0.0000 O   0  0  0  0  0  0  0  0  0  0  0  0
    0.0000    0.0000    0.0000 C   0  0  0  0  0  0  0  0  0  0  0  0
    0.0000    0.0000    0.0000 C   0  0  0  0  0  0  0  0  0  0  0  0
    0.0000    0.0000    0.0000 C   0  0  0  0  0  0  0  0  0  0  0  0
    0.0000    0.0000    0.0000 C   0  0  0  0  0  0  0  0  0  0  0  0
    0.0000    0.0000    0.0000 C   0  0  0  0  0  0  0  0  0  0  0  0
    0.0000    0.0000    0.0000 C   0  0  0  0  0  0  0  0  0  0  0  0
    0.0000    0.0000    0.0000 N   0  0  0  0  0  0  0  0  0  0  0  0
    0.0000    0.0000    0.0000 C   0  0  0  0  0  0  0  0  0  0  0  0
    0.0000    0.0000    0.0000 C   0  0  0  0  0  0  0  0  0  0  0  0
    0.0000    0.0000    0.0000 N   0  0  0  0  0  0  0  0  0  0  0  0
    0.0000    0.0000    0.0000 C   0  0  0  0  0  0  0  0  0  0  0  0
    0.0000    0.0000    0.0000 C   0  0  0  0  0  0  0  0  0  0  0  0
    0.0000    0.0000    0.0000 C   0  0  0  0  0  0  0  0  0  0  0  0
    0.0000    0.0000    0.0000 C   0  0  0  0  0  0  0  0  0  0  0  0
    0.0000    0.0000    0.0000 N   0  0  0  0  0  0  0  0  0  0  0  0
    0.0000    0.0000    0.0000 C   0  0  0  0  0  0  0  0  0  0  0  0
    0.0000    0.0000    0.0000 O   0  0  0  0  0  0  0  0  0  0  0  0
    0.0000    0.0000    0.0000 C   0  0  0  0  0  0  0  0  0  0  0  0
    0.0000    0.0000    0.0000 C   0  0  0  0  0  0  0  0  0  0  0  0
    0.0000    0.0000    0.0000 C   0  0  0  0  0  0  0  0  0  0  0  0
    0.0000    0.0000    0.0000 C   0  0  0  0  0  0  0  0  0  0  0  0
    0.0000    0.0000    0.0000 C   0  0  0  0  0  0  0  0  0  0  0  0
    0.0000    0.0000    0.0000 C   0  0  0  0  0  0  0  0  0  0  0  0
    0.0000    0.0000    0.0000 C   0  0  0  0  0  0  0  0  0  0  0  0
    0.0000    0.0000    0.0000 C   0  0  0  0  0  0  0  0  0  0  0  0
    0.0000    0.0000    0.0000 C   0  0  0  0  0  0  0  0  0  0  0  0
    0.0000    0.0000    0.0000 C   0  0  0  0  0  0  0  0  0  0  0  0
    0.0000    0.0000    0.0000 C   0  0  0  0  0  0  0  0  0  0  0  0
    0.0000    0.0000    0.0000 N   0  0  0  0  0  0  0  0  0  0  0  0
    0.0000    0.0000    0.0000 C   0  0  0  0  0  0  0  0  0  0  0  0
    0.0000    0.0000    0.0000 C   0  0  0  0  0  0  0  0  0  0  0  0
  1  2  1  0
  2  3  1  0
  3  4  2  0
  4  5  1  0
  5  6  2  0
  6  7  1  0
  7  8  2  0
  8  9  1  0
  9 10  1  0
 10 11  1  0
 11 12  1  0
 12 13  1  0
 13 14  1  0
 14 15  1  0
 15 16  1  0
 16 17  1  0
 17 18  1  0
 18 19  2  0
 18 20  1  0
 20 21  2  0
 21 22  1  0
 22 23  2  0
 23 24  1  0
 24 25  2  0
 23 26  1  0
 26 27  2  0
 27 28  1  0
 28 29  2  0
 29 30  1  0
 30 31  2  0
 12 32  1  0
 32 33  1  0
  8  3  1  0
 33  9  1  0
 25 20  1  0
 31 26  1  0
M  END
>  <pIC50>  (136) 
6.97

>  <ChEMBL_ID>  (136) 
CHEMBL241973

>  <document_journal>  (136) 
J. Med. Chem.

>  <bao_endpoint>  (136) 
BAO_0000190

>  <potential_duplicate>  (136) 
False

>  <uo_units>  (136) 
UO_0000065

>  <canonical_smiles>  (136) 
COc1ccccc1N2CCN(CCCCNC(=O)c3ccc(cc3)c4ccccn4)CC2

>  <parent_molecule_chembl_id>  (136) 
CHEMBL241973

>  <assay_type>  (136) 
F

>  <src_id>  (136) 
1

>  <ligand_efficiency>  (136) 
None

>  <standard_flag>  (136) 
True

>  <molecule_chembl_id>  (136) 
CHEMBL241973

>  <target_organism>  (136) 
Homo sapiens

>  <standard_units>  (136) 
nM

>  <record_id>  (136) 
654386

>  <document_chembl_id>  (136) 
CHEMBL1148745

>  <bao_format>  (136) 
BAO_0000219

>  <data_validity_description>  (136) 
None

>  <activity_id>  (136) 
1920690

>  <standard_type>  (136) 
IC50

>  <target_chembl_id>  (136) 
CHEMBL217

>  <data_validity_comment>  (136) 
None

>  <published_value>  (136) 
107

>  <document_year>  (136) 
2007

>  <target_pref_name>  (136) 
Dopamine D2 receptor

>  <assay_chembl_id>  (136) 
CHEMBL895651

>  <standard_relation>  (136) 
=

>  <assay_description>  (136) 
Antagonist activity at human dopamine D2 receptor expressed in HEK293 cells by mitogenesis assay

>  <published_relation>  (136) 
=

>  <standard_value>  (136) 
107

>  <qudt_units>  (136) 
http://www.openphacts.org/units/Nanomolar

>  <target_tax_id>  (136) 
9606

>  <bao_label>  (136) 
cell-based format

>  <published_units>  (136) 
nM

>  <pchembl_value>  (136) 
6.97

>  <published_type>  (136) 
IC50

>  <activity_comment>  (136) 
None

$$$$

     RDKit          

 34 38  0  0  0  0  0  0  0  0999 V2000
    0.0000    0.0000    0.0000 C   0  0  0  0  0  0  0  0  0  0  0  0
    0.0000    0.0000    0.0000 O   0  0  0  0  0  0  0  0  0  0  0  0
    0.0000    0.0000    0.0000 C   0  0  0  0  0  0  0  0  0  0  0  0
    0.0000    0.0000    0.0000 C   0  0  0  0  0  0  0  0  0  0  0  0
    0.0000    0.0000    0.0000 C   0  0  0  0  0  0  0  0  0  0  0  0
    0.0000    0.0000    0.0000 C   0  0  0  0  0  0  0  0  0  0  0  0
    0.0000    0.0000    0.0000 C   0  0  0  0  0  0  0  0  0  0  0  0
    0.0000    0.0000    0.0000 C   0  0  0  0  0  0  0  0  0  0  0  0
    0.0000    0.0000    0.0000 N   0  0  0  0  0  0  0  0  0  0  0  0
    0.0000    0.0000    0.0000 C   0  0  0  0  0  0  0  0  0  0  0  0
    0.0000    0.0000    0.0000 C   0  0  0  0  0  0  0  0  0  0  0  0
    0.0000    0.0000    0.0000 N   0  0  0  0  0  0  0  0  0  0  0  0
    0.0000    0.0000    0.0000 C   0  0  0  0  0  0  0  0  0  0  0  0
    0.0000    0.0000    0.0000 C   0  0  0  0  0  0  0  0  0  0  0  0
    0.0000    0.0000    0.0000 C   0  0  0  0  0  0  0  0  0  0  0  0
    0.0000    0.0000    0.0000 C   0  0  0  0  0  0  0  0  0  0  0  0
    0.0000    0.0000    0.0000 N   0  0  0  0  0  0  0  0  0  0  0  0
    0.0000    0.0000    0.0000 C   0  0  0  0  0  0  0  0  0  0  0  0
    0.0000    0.0000    0.0000 O   0  0  0  0  0  0  0  0  0  0  0  0
    0.0000    0.0000    0.0000 C   0  0  0  0  0  0  0  0  0  0  0  0
    0.0000    0.0000    0.0000 C   0  0  0  0  0  0  0  0  0  0  0  0
    0.0000    0.0000    0.0000 C   0  0  0  0  0  0  0  0  0  0  0  0
    0.0000    0.0000    0.0000 C   0  0  0  0  0  0  0  0  0  0  0  0
    0.0000    0.0000    0.0000 C   0  0  0  0  0  0  0  0  0  0  0  0
    0.0000    0.0000    0.0000 C   0  0  0  0  0  0  0  0  0  0  0  0
    0.0000    0.0000    0.0000 C   0  0  0  0  0  0  0  0  0  0  0  0
    0.0000    0.0000    0.0000 C   0  0  0  0  0  0  0  0  0  0  0  0
    0.0000    0.0000    0.0000 C   0  0  0  0  0  0  0  0  0  0  0  0
    0.0000    0.0000    0.0000 C   0  0  0  0  0  0  0  0  0  0  0  0
    0.0000    0.0000    0.0000 C   0  0  0  0  0  0  0  0  0  0  0  0
    0.0000    0.0000    0.0000 C   0  0  0  0  0  0  0  0  0  0  0  0
    0.0000    0.0000    0.0000 C   0  0  0  0  0  0  0  0  0  0  0  0
    0.0000    0.0000    0.0000 C   0  0  0  0  0  0  0  0  0  0  0  0
    0.0000    0.0000    0.0000 C   0  0  0  0  0  0  0  0  0  0  0  0
  1  2  1  0
  2  3  1  0
  3  4  2  0
  4  5  1  0
  5  6  2  0
  6  7  1  0
  7  8  2  0
  8  9  1  0
  9 10  1  0
 10 11  1  0
 11 12  1  0
 12 13  1  0
 13 14  1  0
 14 15  1  0
 15 16  1  0
 16 17  1  0
 17 18  1  0
 18 19  2  0
 18 20  1  0
 20 21  2  0
 21 22  1  0
 22 23  2  0
 23 24  1  0
 24 25  1  0
 25 26  1  0
 26 27  2  0
 27 28  1  0
 28 29  2  0
 29 30  1  0
 30 31  2  0
 24 32  2  0
 12 33  1  0
 33 34  1  0
  8  3  1  0
 34  9  1  0
 32 20  1  0
 31 23  1  0
 31 26  1  0
M  END
>  <pIC50>  (137) 
6.65

>  <ChEMBL_ID>  (137) 
CHEMBL110365

>  <document_journal>  (137) 
J. Med. Chem.

>  <bao_endpoint>  (137) 
BAO_0000190

>  <potential_duplicate>  (137) 
False

>  <uo_units>  (137) 
UO_0000065

>  <canonical_smiles>  (137) 
COc1ccccc1N2CCN(CCCCNC(=O)c3ccc4c(Cc5ccccc45)c3)CC2

>  <parent_molecule_chembl_id>  (137) 
CHEMBL110365

>  <assay_type>  (137) 
F

>  <src_id>  (137) 
1

>  <ligand_efficiency>  (137) 
None

>  <standard_flag>  (137) 
True

>  <molecule_chembl_id>  (137) 
CHEMBL110365

>  <target_organism>  (137) 
Homo sapiens

>  <standard_units>  (137) 
nM

>  <record_id>  (137) 
654385

>  <document_chembl_id>  (137) 
CHEMBL1148745

>  <bao_format>  (137) 
BAO_0000219

>  <data_validity_description>  (137) 
None

>  <activity_id>  (137) 
1920691

>  <standard_type>  (137) 
IC50

>  <target_chembl_id>  (137) 
CHEMBL217

>  <data_validity_comment>  (137) 
None

>  <published_value>  (137) 
224

>  <document_year>  (137) 
2007

>  <target_pref_name>  (137) 
Dopamine D2 receptor

>  <assay_chembl_id>  (137) 
CHEMBL895651

>  <standard_relation>  (137) 
=

>  <assay_description>  (137) 
Antagonist activity at human dopamine D2 receptor expressed in HEK293 cells by mitogenesis assay

>  <published_relation>  (137) 
=

>  <standard_value>  (137) 
224

>  <qudt_units>  (137) 
http://www.openphacts.org/units/Nanomolar

>  <target_tax_id>  (137) 
9606

>  <bao_label>  (137) 
cell-based format

>  <published_units>  (137) 
nM

>  <pchembl_value>  (137) 
6.65

>  <published_type>  (137) 
IC50

>  <activity_comment>  (137) 
None

$$$$

     RDKit          

 34 38  0  0  0  0  0  0  0  0999 V2000
    0.0000    0.0000    0.0000 Cl  0  0  0  0  0  0  0  0  0  0  0  0
    0.0000    0.0000    0.0000 C   0  0  0  0  0  0  0  0  0  0  0  0
    0.0000    0.0000    0.0000 C   0  0  0  0  0  0  0  0  0  0  0  0
    0.0000    0.0000    0.0000 C   0  0  0  0  0  0  0  0  0  0  0  0
    0.0000    0.0000    0.0000 C   0  0  0  0  0  0  0  0  0  0  0  0
    0.0000    0.0000    0.0000 C   0  0  0  0  0  0  0  0  0  0  0  0
    0.0000    0.0000    0.0000 N   0  0  0  0  0  0  0  0  0  0  0  0
    0.0000    0.0000    0.0000 C   0  0  0  0  0  0  0  0  0  0  0  0
    0.0000    0.0000    0.0000 C   0  0  0  0  0  0  0  0  0  0  0  0
    0.0000    0.0000    0.0000 N   0  0  0  0  0  0  0  0  0  0  0  0
    0.0000    0.0000    0.0000 C   0  0  0  0  0  0  0  0  0  0  0  0
    0.0000    0.0000    0.0000 C   0  0  0  0  0  0  0  0  0  0  0  0
    0.0000    0.0000    0.0000 C   0  0  0  0  0  0  0  0  0  0  0  0
    0.0000    0.0000    0.0000 C   0  0  0  0  0  0  0  0  0  0  0  0
    0.0000    0.0000    0.0000 C   0  0  0  0  0  0  0  0  0  0  0  0
    0.0000    0.0000    0.0000 N   0  0  0  0  0  0  0  0  0  0  0  0
    0.0000    0.0000    0.0000 C   0  0  0  0  0  0  0  0  0  0  0  0
    0.0000    0.0000    0.0000 O   0  0  0  0  0  0  0  0  0  0  0  0
    0.0000    0.0000    0.0000 C   0  0  0  0  0  0  0  0  0  0  0  0
    0.0000    0.0000    0.0000 C   0  0  0  0  0  0  0  0  0  0  0  0
    0.0000    0.0000    0.0000 C   0  0  0  0  0  0  0  0  0  0  0  0
    0.0000    0.0000    0.0000 C   0  0  0  0  0  0  0  0  0  0  0  0
    0.0000    0.0000    0.0000 C   0  0  0  0  0  0  0  0  0  0  0  0
    0.0000    0.0000    0.0000 C   0  0  0  0  0  0  0  0  0  0  0  0
    0.0000    0.0000    0.0000 C   0  0  0  0  0  0  0  0  0  0  0  0
    0.0000    0.0000    0.0000 C   0  0  0  0  0  0  0  0  0  0  0  0
    0.0000    0.0000    0.0000 C   0  0  0  0  0  0  0  0  0  0  0  0
    0.0000    0.0000    0.0000 C   0  0  0  0  0  0  0  0  0  0  0  0
    0.0000    0.0000    0.0000 C   0  0  0  0  0  0  0  0  0  0  0  0
    0.0000    0.0000    0.0000 N   0  0  0  0  0  0  0  0  0  0  0  0
    0.0000    0.0000    0.0000 C   0  0  0  0  0  0  0  0  0  0  0  0
    0.0000    0.0000    0.0000 C   0  0  0  0  0  0  0  0  0  0  0  0
    0.0000    0.0000    0.0000 C   0  0  0  0  0  0  0  0  0  0  0  0
    0.0000    0.0000    0.0000 Cl  0  0  0  0  0  0  0  0  0  0  0  0
  1  2  1  0
  2  3  2  0
  3  4  1  0
  4  5  2  0
  5  6  1  0
  6  7  1  0
  7  8  1  0
  8  9  1  0
  9 10  1  0
 10 11  1  0
 11 12  1  0
 12 13  1  0
 13 14  1  0
 14 15  1  0
 15 16  1  0
 16 17  1  0
 17 18  2  0
 17 19  1  0
 19 20  2  0
 20 21  1  0
 21 22  2  0
 22 23  1  0
 23 24  2  0
 22 25  1  0
 25 26  2  0
 26 27  1  0
 27 28  2  0
 28 29  1  0
 29 30  2  0
 10 31  1  0
 31 32  1  0
  6 33  2  0
 33 34  1  0
 33  2  1  0
 32  7  1  0
 14 12  1  0
 24 19  1  0
 30 25  1  0
M  END
>  <pIC50>  (138) 
6.17

>  <ChEMBL_ID>  (138) 
CHEMBL231156

>  <document_journal>  (138) 
J. Med. Chem.

>  <bao_endpoint>  (138) 
BAO_0000190

>  <potential_duplicate>  (138) 
False

>  <uo_units>  (138) 
UO_0000065

>  <canonical_smiles>  (138) 
Clc1cccc(N2CCN(C[C@H]3C[C@@H]3CNC(=O)c4ccc(cc4)c5ccccn5)CC2)c1Cl

>  <parent_molecule_chembl_id>  (138) 
CHEMBL231156

>  <assay_type>  (138) 
F

>  <src_id>  (138) 
1

>  <ligand_efficiency>  (138) 
None

>  <standard_flag>  (138) 
True

>  <molecule_chembl_id>  (138) 
CHEMBL231156

>  <target_organism>  (138) 
Homo sapiens

>  <standard_units>  (138) 
nM

>  <record_id>  (138) 
654402

>  <document_chembl_id>  (138) 
CHEMBL1148745

>  <bao_format>  (138) 
BAO_0000219

>  <data_validity_description>  (138) 
None

>  <activity_id>  (138) 
1920693

>  <standard_type>  (138) 
IC50

>  <target_chembl_id>  (138) 
CHEMBL217

>  <data_validity_comment>  (138) 
None

>  <published_value>  (138) 
672

>  <document_year>  (138) 
2007

>  <target_pref_name>  (138) 
Dopamine D2 receptor

>  <assay_chembl_id>  (138) 
CHEMBL895651

>  <standard_relation>  (138) 
=

>  <assay_description>  (138) 
Antagonist activity at human dopamine D2 receptor expressed in HEK293 cells by mitogenesis assay

>  <published_relation>  (138) 
=

>  <standard_value>  (138) 
672

>  <qudt_units>  (138) 
http://www.openphacts.org/units/Nanomolar

>  <target_tax_id>  (138) 
9606

>  <bao_label>  (138) 
cell-based format

>  <published_units>  (138) 
nM

>  <pchembl_value>  (138) 
6.17

>  <published_type>  (138) 
IC50

>  <activity_comment>  (138) 
None

$$$$

     RDKit          

 34 37  0  0  0  0  0  0  0  0999 V2000
    0.0000    0.0000    0.0000 O   0  0  0  0  0  0  0  0  0  0  0  0
    0.0000    0.0000    0.0000 C   0  0  0  0  0  0  0  0  0  0  0  0
    0.0000    0.0000    0.0000 C   0  0  0  0  0  0  0  0  0  0  0  0
    0.0000    0.0000    0.0000 C   0  0  0  0  0  0  0  0  0  0  0  0
    0.0000    0.0000    0.0000 N   0  0  0  0  0  0  0  0  0  0  0  0
    0.0000    0.0000    0.0000 C   0  0  0  0  0  0  0  0  0  0  0  0
    0.0000    0.0000    0.0000 C   0  0  0  0  0  0  0  0  0  0  0  0
    0.0000    0.0000    0.0000 N   0  0  0  0  0  0  0  0  0  0  0  0
    0.0000    0.0000    0.0000 C   0  0  0  0  0  0  0  0  0  0  0  0
    0.0000    0.0000    0.0000 C   0  0  0  0  0  0  0  0  0  0  0  0
    0.0000    0.0000    0.0000 C   0  0  0  0  0  0  0  0  0  0  0  0
    0.0000    0.0000    0.0000 C   0  0  0  0  0  0  0  0  0  0  0  0
    0.0000    0.0000    0.0000 C   0  0  0  0  0  0  0  0  0  0  0  0
    0.0000    0.0000    0.0000 C   0  0  0  0  0  0  0  0  0  0  0  0
    0.0000    0.0000    0.0000 C   0  0  0  0  0  0  0  0  0  0  0  0
    0.0000    0.0000    0.0000 Cl  0  0  0  0  0  0  0  0  0  0  0  0
    0.0000    0.0000    0.0000 C   0  0  0  0  0  0  0  0  0  0  0  0
    0.0000    0.0000    0.0000 Cl  0  0  0  0  0  0  0  0  0  0  0  0
    0.0000    0.0000    0.0000 C   0  0  0  0  0  0  0  0  0  0  0  0
    0.0000    0.0000    0.0000 N   0  0  0  0  0  0  0  0  0  0  0  0
    0.0000    0.0000    0.0000 C   0  0  0  0  0  0  0  0  0  0  0  0
    0.0000    0.0000    0.0000 O   0  0  0  0  0  0  0  0  0  0  0  0
    0.0000    0.0000    0.0000 C   0  0  0  0  0  0  0  0  0  0  0  0
    0.0000    0.0000    0.0000 C   0  0  0  0  0  0  0  0  0  0  0  0
    0.0000    0.0000    0.0000 C   0  0  0  0  0  0  0  0  0  0  0  0
    0.0000    0.0000    0.0000 C   0  0  0  0  0  0  0  0  0  0  0  0
    0.0000    0.0000    0.0000 C   0  0  0  0  0  0  0  0  0  0  0  0
    0.0000    0.0000    0.0000 C   0  0  0  0  0  0  0  0  0  0  0  0
    0.0000    0.0000    0.0000 C   0  0  0  0  0  0  0  0  0  0  0  0
    0.0000    0.0000    0.0000 C   0  0  0  0  0  0  0  0  0  0  0  0
    0.0000    0.0000    0.0000 C   0  0  0  0  0  0  0  0  0  0  0  0
    0.0000    0.0000    0.0000 C   0  0  0  0  0  0  0  0  0  0  0  0
    0.0000    0.0000    0.0000 C   0  0  0  0  0  0  0  0  0  0  0  0
    0.0000    0.0000    0.0000 N   0  0  0  0  0  0  0  0  0  0  0  0
  1  2  1  0
  2  3  1  0
  3  4  1  0
  4  5  1  0
  5  6  1  0
  6  7  1  0
  7  8  1  0
  8  9  1  0
  9 10  1  0
  8 11  1  0
 11 12  2  0
 12 13  1  0
 13 14  2  0
 14 15  1  0
 15 16  1  0
 15 17  2  0
 17 18  1  0
  2 19  1  0
 19 20  1  0
 20 21  1  0
 21 22  2  0
 21 23  1  0
 23 24  2  0
 24 25  1  0
 25 26  2  0
 26 27  1  0
 27 28  2  0
 26 29  1  0
 29 30  2  0
 30 31  1  0
 31 32  2  0
 32 33  1  0
 33 34  2  0
 10  5  1  0
 17 11  1  0
 28 23  1  0
 34 29  1  0
M  END
>  <pIC50>  (139) 
7.05

>  <ChEMBL_ID>  (139) 
CHEMBL390253

>  <document_journal>  (139) 
J. Med. Chem.

>  <bao_endpoint>  (139) 
BAO_0000190

>  <potential_duplicate>  (139) 
False

>  <uo_units>  (139) 
UO_0000065

>  <canonical_smiles>  (139) 
OC(CCN1CCN(CC1)c2cccc(Cl)c2Cl)CNC(=O)c3ccc(cc3)c4ccccn4

>  <parent_molecule_chembl_id>  (139) 
CHEMBL390253

>  <assay_type>  (139) 
F

>  <src_id>  (139) 
1

>  <ligand_efficiency>  (139) 
None

>  <standard_flag>  (139) 
True

>  <molecule_chembl_id>  (139) 
CHEMBL390253

>  <target_organism>  (139) 
Homo sapiens

>  <standard_units>  (139) 
nM

>  <record_id>  (139) 
654399

>  <document_chembl_id>  (139) 
CHEMBL1148745

>  <bao_format>  (139) 
BAO_0000219

>  <data_validity_description>  (139) 
None

>  <activity_id>  (139) 
1920694

>  <standard_type>  (139) 
IC50

>  <target_chembl_id>  (139) 
CHEMBL217

>  <data_validity_comment>  (139) 
None

>  <published_value>  (139) 
88.3

>  <document_year>  (139) 
2007

>  <target_pref_name>  (139) 
Dopamine D2 receptor

>  <assay_chembl_id>  (139) 
CHEMBL895651

>  <standard_relation>  (139) 
=

>  <assay_description>  (139) 
Antagonist activity at human dopamine D2 receptor expressed in HEK293 cells by mitogenesis assay

>  <published_relation>  (139) 
=

>  <standard_value>  (139) 
88.3

>  <qudt_units>  (139) 
http://www.openphacts.org/units/Nanomolar

>  <target_tax_id>  (139) 
9606

>  <bao_label>  (139) 
cell-based format

>  <published_units>  (139) 
nM

>  <pchembl_value>  (139) 
7.05

>  <published_type>  (139) 
IC50

>  <activity_comment>  (139) 
None

$$$$

     RDKit          

 34 37  0  0  0  0  0  0  0  0999 V2000
    0.0000    0.0000    0.0000 C   0  0  0  0  0  0  0  0  0  0  0  0
    0.0000    0.0000    0.0000 C   0  0  0  0  0  0  0  0  0  0  0  0
    0.0000    0.0000    0.0000 O   0  0  0  0  0  0  0  0  0  0  0  0
    0.0000    0.0000    0.0000 C   0  0  0  0  0  0  0  0  0  0  0  0
    0.0000    0.0000    0.0000 C   0  0  0  0  0  0  0  0  0  0  0  0
    0.0000    0.0000    0.0000 C   0  0  0  0  0  0  0  0  0  0  0  0
    0.0000    0.0000    0.0000 C   0  0  0  0  0  0  0  0  0  0  0  0
    0.0000    0.0000    0.0000 C   0  0  0  0  0  0  0  0  0  0  0  0
    0.0000    0.0000    0.0000 N   0  0  0  0  0  0  0  0  0  0  0  0
    0.0000    0.0000    0.0000 C   0  0  0  0  0  0  0  0  0  0  0  0
    0.0000    0.0000    0.0000 O   0  0  0  0  0  0  0  0  0  0  0  0
    0.0000    0.0000    0.0000 N   0  0  0  0  0  0  0  0  0  0  0  0
    0.0000    0.0000    0.0000 C   0  0  0  0  0  0  0  0  0  0  0  0
    0.0000    0.0000    0.0000 C   0  0  0  0  0  0  0  0  0  0  0  0
    0.0000    0.0000    0.0000 C   0  0  0  0  0  0  0  0  0  0  0  0
    0.0000    0.0000    0.0000 C   0  0  0  0  0  0  0  0  0  0  0  0
    0.0000    0.0000    0.0000 C   0  0  0  0  0  0  0  0  0  0  0  0
    0.0000    0.0000    0.0000 C   0  0  0  0  0  0  0  0  0  0  0  0
    0.0000    0.0000    0.0000 C   0  0  0  0  0  0  0  0  0  0  0  0
    0.0000    0.0000    0.0000 N   0  0  0  0  0  0  0  0  0  0  0  0
    0.0000    0.0000    0.0000 C   0  0  0  0  0  0  0  0  0  0  0  0
    0.0000    0.0000    0.0000 C   0  0  0  0  0  0  0  0  0  0  0  0
    0.0000    0.0000    0.0000 C   0  0  0  0  0  0  0  0  0  0  0  0
    0.0000    0.0000    0.0000 C   0  0  0  0  0  0  0  0  0  0  0  0
    0.0000    0.0000    0.0000 C   0  0  0  0  0  0  0  0  0  0  0  0
    0.0000    0.0000    0.0000 C   0  0  0  0  0  0  0  0  0  0  0  0
    0.0000    0.0000    0.0000 C   0  0  0  0  0  0  0  0  0  0  0  0
    0.0000    0.0000    0.0000 C   0  0  0  0  0  0  0  0  0  0  0  0
    0.0000    0.0000    0.0000 C   0  0  0  0  0  0  0  0  0  0  0  0
    0.0000    0.0000    0.0000 F   0  0  0  0  0  0  0  0  0  0  0  0
    0.0000    0.0000    0.0000 C   0  0  0  0  0  0  0  0  0  0  0  0
    0.0000    0.0000    0.0000 C   0  0  0  0  0  0  0  0  0  0  0  0
    0.0000    0.0000    0.0000 C   0  0  0  0  0  0  0  0  0  0  0  0
    0.0000    0.0000    0.0000 C   0  0  0  0  0  0  0  0  0  0  0  0
  1  2  1  0
  2  3  2  0
  2  4  1  0
  4  5  2  0
  5  6  1  0
  6  7  2  0
  7  8  1  0
  8  9  1  0
  9 10  1  0
 10 11  2  0
 10 12  1  0
 12 13  1  0
 13 14  1  0
 14 15  1  0
 15 16  1  0
 16 17  1  0
 17 18  1  0
 18 19  1  0
 19 20  1  0
 20 21  1  0
 21 22  1  0
 22 23  1  0
 23 24  1  0
 24 25  1  0
 25 26  1  0
 26 27  2  0
 27 28  1  0
 28 29  2  0
 29 30  1  0
 29 31  1  0
 31 32  2  0
 24 33  1  0
  8 34  2  0
 34  4  1  0
 18 13  1  0
 33 20  1  0
 32 26  1  0
M  END
>  <pIC50>  (140) 
6.0

>  <ChEMBL_ID>  (140) 
CHEMBL250689

>  <document_journal>  (140) 
Bioorg. Med. Chem. Lett.

>  <bao_endpoint>  (140) 
BAO_0000190

>  <potential_duplicate>  (140) 
False

>  <uo_units>  (140) 
UO_0000065

>  <canonical_smiles>  (140) 
CC(=O)c1cccc(NC(=O)N[C@@H]2CCCC[C@H]2CN3CCC[C@@H](Cc4ccc(F)cc4)C3)c1

>  <parent_molecule_chembl_id>  (140) 
CHEMBL250689

>  <assay_type>  (140) 
B

>  <src_id>  (140) 
1

>  <ligand_efficiency>  (140) 
{u'le': u'0.24', u'bei': u'12.89', u'sei': u'9.77', u'lle': u'0.75'}

>  <standard_flag>  (140) 
True

>  <molecule_chembl_id>  (140) 
CHEMBL250689

>  <target_organism>  (140) 
Homo sapiens

>  <standard_units>  (140) 
nM

>  <record_id>  (140) 
682773

>  <document_chembl_id>  (140) 
CHEMBL1140623

>  <bao_format>  (140) 
BAO_0000357

>  <data_validity_description>  (140) 
None

>  <activity_id>  (140) 
2055980

>  <standard_type>  (140) 
IC50

>  <target_chembl_id>  (140) 
CHEMBL217

>  <data_validity_comment>  (140) 
None

>  <published_value>  (140) 
1000

>  <document_year>  (140) 
2007

>  <target_pref_name>  (140) 
Dopamine D2 receptor

>  <assay_chembl_id>  (140) 
CHEMBL925073

>  <standard_relation>  (140) 
=

>  <assay_description>  (140) 
Inhibition of dopamine D2 receptor

>  <published_relation>  (140) 
=

>  <standard_value>  (140) 
1000

>  <qudt_units>  (140) 
http://www.openphacts.org/units/Nanomolar

>  <target_tax_id>  (140) 
9606

>  <bao_label>  (140) 
single protein format

>  <published_units>  (140) 
nM

>  <pchembl_value>  (140) 
6

>  <published_type>  (140) 
IC50

>  <activity_comment>  (140) 
None

$$$$

     RDKit          

 37 40  0  0  0  0  0  0  0  0999 V2000
    0.0000    0.0000    0.0000 C   0  0  0  0  0  0  0  0  0  0  0  0
    0.0000    0.0000    0.0000 C   0  0  0  0  0  0  0  0  0  0  0  0
    0.0000    0.0000    0.0000 O   0  0  0  0  0  0  0  0  0  0  0  0
    0.0000    0.0000    0.0000 N   0  0  0  0  0  0  0  0  0  0  0  0
    0.0000    0.0000    0.0000 C   0  0  0  0  0  0  0  0  0  0  0  0
    0.0000    0.0000    0.0000 C   0  0  0  0  0  0  0  0  0  0  0  0
    0.0000    0.0000    0.0000 C   0  0  0  0  0  0  0  0  0  0  0  0
    0.0000    0.0000    0.0000 C   0  0  0  0  0  0  0  0  0  0  0  0
    0.0000    0.0000    0.0000 N   0  0  0  0  0  0  0  0  0  0  0  0
    0.0000    0.0000    0.0000 C   0  0  0  0  0  0  0  0  0  0  0  0
    0.0000    0.0000    0.0000 C   0  0  0  0  0  0  0  0  0  0  0  0
    0.0000    0.0000    0.0000 C   0  0  0  0  0  0  0  0  0  0  0  0
    0.0000    0.0000    0.0000 C   0  0  0  0  0  0  0  0  0  0  0  0
    0.0000    0.0000    0.0000 C   0  0  0  0  0  0  0  0  0  0  0  0
    0.0000    0.0000    0.0000 C   0  0  0  0  0  0  0  0  0  0  0  0
    0.0000    0.0000    0.0000 C   0  0  0  0  0  0  0  0  0  0  0  0
    0.0000    0.0000    0.0000 C   0  0  0  0  0  0  0  0  0  0  0  0
    0.0000    0.0000    0.0000 C   0  0  0  0  0  0  0  0  0  0  0  0
    0.0000    0.0000    0.0000 F   0  0  0  0  0  0  0  0  0  0  0  0
    0.0000    0.0000    0.0000 C   0  0  0  0  0  0  0  0  0  0  0  0
    0.0000    0.0000    0.0000 C   0  0  0  0  0  0  0  0  0  0  0  0
    0.0000    0.0000    0.0000 C   0  0  0  0  0  0  0  0  0  0  0  0
    0.0000    0.0000    0.0000 C   0  0  0  0  0  0  0  0  0  0  0  0
    0.0000    0.0000    0.0000 C   0  0  0  0  0  0  0  0  0  0  0  0
    0.0000    0.0000    0.0000 N   0  0  0  0  0  0  0  0  0  0  0  0
    0.0000    0.0000    0.0000 C   0  0  0  0  0  0  0  0  0  0  0  0
    0.0000    0.0000    0.0000 O   0  0  0  0  0  0  0  0  0  0  0  0
    0.0000    0.0000    0.0000 N   0  0  0  0  0  0  0  0  0  0  0  0
    0.0000    0.0000    0.0000 C   0  0  0  0  0  0  0  0  0  0  0  0
    0.0000    0.0000    0.0000 N   0  0  0  0  0  0  0  0  0  0  0  0
    0.0000    0.0000    0.0000 C   0  0  0  0  0  0  0  0  0  0  0  0
    0.0000    0.0000    0.0000 C   0  0  0  0  0  0  0  0  0  0  0  0
    0.0000    0.0000    0.0000 C   0  0  0  0  0  0  0  0  0  0  0  0
    0.0000    0.0000    0.0000 S   0  0  0  0  0  0  0  0  0  0  0  0
    0.0000    0.0000    0.0000 C   0  0  0  0  0  0  0  0  0  0  0  0
    0.0000    0.0000    0.0000 O   0  0  0  0  0  0  0  0  0  0  0  0
    0.0000    0.0000    0.0000 C   0  0  0  0  0  0  0  0  0  0  0  0
  1  2  1  0
  2  3  2  0
  2  4  1  0
  4  5  1  0
  5  6  1  0
  6  7  1  0
  7  8  1  0
  8  9  1  0
  9 10  1  0
 10 11  1  0
 11 12  1  0
 12 13  1  0
 13 14  1  0
 14 15  1  0
 15 16  2  0
 16 17  1  0
 17 18  2  0
 18 19  1  0
 18 20  1  0
 20 21  2  0
 13 22  1  0
  7 23  1  0
 23 24  1  0
 23 25  1  0
 25 26  1  0
 26 27  2  0
 26 28  1  0
 28 29  1  0
 29 30  2  0
 30 31  1  0
 31 32  1  0
 31 33  2  0
 33 34  1  0
 33 35  1  0
 35 36  2  0
 35 37  1  0
 24  4  1  0
 22  9  1  0
 21 15  1  0
 34 29  1  0
M  END
>  <pIC50>  (141) 
6.19

>  <ChEMBL_ID>  (141) 
CHEMBL249854

>  <document_journal>  (141) 
Bioorg. Med. Chem. Lett.

>  <bao_endpoint>  (141) 
BAO_0000190

>  <potential_duplicate>  (141) 
False

>  <uo_units>  (141) 
UO_0000065

>  <canonical_smiles>  (141) 
CC(=O)N1CC[C@@H](CN2CCC[C@@H](Cc3ccc(F)cc3)C2)[C@@H](C1)NC(=O)Nc4nc(C)c(s4)C(=O)C

>  <parent_molecule_chembl_id>  (141) 
CHEMBL249854

>  <assay_type>  (141) 
B

>  <src_id>  (141) 
1

>  <ligand_efficiency>  (141) 
{u'le': u'0.23', u'bei': u'11.69', u'sei': u'5.04', u'lle': u'3.34'}

>  <standard_flag>  (141) 
True

>  <molecule_chembl_id>  (141) 
CHEMBL249854

>  <target_organism>  (141) 
Homo sapiens

>  <standard_units>  (141) 
nM

>  <record_id>  (141) 
682813

>  <document_chembl_id>  (141) 
CHEMBL1140623

>  <bao_format>  (141) 
BAO_0000357

>  <data_validity_description>  (141) 
None

>  <activity_id>  (141) 
2056003

>  <standard_type>  (141) 
IC50

>  <target_chembl_id>  (141) 
CHEMBL217

>  <data_validity_comment>  (141) 
None

>  <published_value>  (141) 
640

>  <document_year>  (141) 
2007

>  <target_pref_name>  (141) 
Dopamine D2 receptor

>  <assay_chembl_id>  (141) 
CHEMBL925073

>  <standard_relation>  (141) 
=

>  <assay_description>  (141) 
Inhibition of dopamine D2 receptor

>  <published_relation>  (141) 
=

>  <standard_value>  (141) 
640

>  <qudt_units>  (141) 
http://www.openphacts.org/units/Nanomolar

>  <target_tax_id>  (141) 
9606

>  <bao_label>  (141) 
single protein format

>  <published_units>  (141) 
nM

>  <pchembl_value>  (141) 
6.19

>  <published_type>  (141) 
IC50

>  <activity_comment>  (141) 
None

$$$$

     RDKit          

 38 42  0  0  0  0  0  0  0  0999 V2000
    0.0000    0.0000    0.0000 C   0  0  0  0  0  0  0  0  0  0  0  0
    0.0000    0.0000    0.0000 C   0  0  0  0  0  0  0  0  0  0  0  0
    0.0000    0.0000    0.0000 C   0  0  0  0  0  0  0  0  0  0  0  0
    0.0000    0.0000    0.0000 C   0  0  0  0  0  0  0  0  0  0  0  0
    0.0000    0.0000    0.0000 C   0  0  0  0  0  0  0  0  0  0  0  0
    0.0000    0.0000    0.0000 C   0  0  0  0  0  0  0  0  0  0  0  0
    0.0000    0.0000    0.0000 N   0  0  0  0  0  0  0  0  0  0  0  0
    0.0000    0.0000    0.0000 C   0  0  0  0  0  0  0  0  0  0  0  0
    0.0000    0.0000    0.0000 C   0  0  0  0  0  0  0  0  0  0  0  0
    0.0000    0.0000    0.0000 N   0  0  0  0  0  0  0  0  0  0  0  0
    0.0000    0.0000    0.0000 C   0  0  0  0  0  0  0  0  0  0  0  0
    0.0000    0.0000    0.0000 C   0  0  0  0  0  0  0  0  0  0  0  0
    0.0000    0.0000    0.0000 C   0  0  0  0  0  0  0  0  0  0  0  0
    0.0000    0.0000    0.0000 C   0  0  0  0  0  0  0  0  0  0  0  0
    0.0000    0.0000    0.0000 O   0  0  0  0  0  0  0  0  0  0  0  0
    0.0000    0.0000    0.0000 N   0  0  0  0  0  0  0  0  0  0  0  0
    0.0000    0.0000    0.0000 C   0  0  0  0  0  0  0  0  0  0  0  0
    0.0000    0.0000    0.0000 C   0  0  0  0  0  0  0  0  0  0  0  0
    0.0000    0.0000    0.0000 N   0  0  0  0  0  0  0  0  0  0  0  0
    0.0000    0.0000    0.0000 C   0  0  0  0  0  0  0  0  0  0  0  0
    0.0000    0.0000    0.0000 C   0  0  0  0  0  0  0  0  0  0  0  0
    0.0000    0.0000    0.0000 C   0  0  0  0  0  0  0  0  0  0  0  0
    0.0000    0.0000    0.0000 C   0  0  0  0  0  0  0  0  0  0  0  0
    0.0000    0.0000    0.0000 C   0  0  0  0  0  0  0  0  0  0  0  0
    0.0000    0.0000    0.0000 C   0  0  0  0  0  0  0  0  0  0  0  0
    0.0000    0.0000    0.0000 C   0  0  0  0  0  0  0  0  0  0  0  0
    0.0000    0.0000    0.0000 O   0  0  0  0  0  0  0  0  0  0  0  0
    0.0000    0.0000    0.0000 N   0  0  0  0  0  0  0  0  0  0  0  0
    0.0000    0.0000    0.0000 C   0  0  0  0  0  0  0  0  0  0  0  0
    0.0000    0.0000    0.0000 C   0  0  0  0  0  0  0  0  0  0  0  0
    0.0000    0.0000    0.0000 C   0  0  0  0  0  0  0  0  0  0  0  0
    0.0000    0.0000    0.0000 C   0  0  0  0  0  0  0  0  0  0  0  0
    0.0000    0.0000    0.0000 C   0  0  0  0  0  0  0  0  0  0  0  0
    0.0000    0.0000    0.0000 C   0  0  0  0  0  0  0  0  0  0  0  0
    0.0000    0.0000    0.0000 C   0  0  0  0  0  0  0  0  0  0  0  0
    0.0000    0.0000    0.0000 C   0  0  0  0  0  0  0  0  0  0  0  0
    0.0000    0.0000    0.0000 C   0  0  0  0  0  0  0  0  0  0  0  0
    0.0000    0.0000    0.0000 C   0  0  0  0  0  0  0  0  0  0  0  0
  1  2  1  0
  2  3  2  0
  3  4  1  0
  4  5  2  0
  5  6  1  0
  6  7  1  0
  7  8  1  0
  8  9  1  0
  9 10  1  0
 10 11  1  0
 11 12  1  0
 12 13  1  0
 13 14  1  0
 14 15  2  0
 14 16  1  0
 16 17  1  0
 17 18  1  0
 18 19  2  0
 19 20  1  0
 20 21  2  0
 21 22  1  0
 22 23  2  0
 23 24  1  0
 24 25  2  0
 25 26  1  0
 26 27  2  0
 26 28  1  0
 28 29  1  0
 29 30  2  0
 30 31  1  0
 31 32  2  0
 32 33  1  0
 33 34  2  0
 10 35  1  0
 35 36  1  0
  6 37  2  0
 37 38  1  0
 37  2  1  0
 36  7  1  0
 28 18  1  0
 25 20  1  0
 34 29  1  0
M  END
>  <pIC50>  (142) 
5.16

>  <ChEMBL_ID>  (142) 
CHEMBL259415

>  <document_journal>  (142) 
Bioorg. Med. Chem.

>  <bao_endpoint>  (142) 
BAO_0000190

>  <potential_duplicate>  (142) 
False

>  <uo_units>  (142) 
UO_0000065

>  <canonical_smiles>  (142) 
Cc1cccc(N2CCN(CCCC(=O)NCC3=Nc4ccccc4C(=O)N3c5ccccc5)CC2)c1C

>  <parent_molecule_chembl_id>  (142) 
CHEMBL259415

>  <assay_type>  (142) 
B

>  <src_id>  (142) 
1

>  <ligand_efficiency>  (142) 
{u'le': u'0.19', u'bei': u'10.13', u'sei': u'7.56', u'lle': u'0.31'}

>  <standard_flag>  (142) 
True

>  <molecule_chembl_id>  (142) 
CHEMBL259415

>  <target_organism>  (142) 
Homo sapiens

>  <standard_units>  (142) 
nM

>  <record_id>  (142) 
706362

>  <document_chembl_id>  (142) 
CHEMBL1144677

>  <bao_format>  (142) 
BAO_0000357

>  <data_validity_description>  (142) 
None

>  <activity_id>  (142) 
2138442

>  <standard_type>  (142) 
IC50

>  <target_chembl_id>  (142) 
CHEMBL217

>  <data_validity_comment>  (142) 
None

>  <published_value>  (142) 
6900

>  <document_year>  (142) 
2008

>  <target_pref_name>  (142) 
Dopamine D2 receptor

>  <assay_chembl_id>  (142) 
CHEMBL920904

>  <standard_relation>  (142) 
=

>  <assay_description>  (142) 
Binding affinity at dopamine D2 receptor

>  <published_relation>  (142) 
=

>  <standard_value>  (142) 
6900

>  <qudt_units>  (142) 
http://www.openphacts.org/units/Nanomolar

>  <target_tax_id>  (142) 
9606

>  <bao_label>  (142) 
single protein format

>  <published_units>  (142) 
nM

>  <pchembl_value>  (142) 
5.16

>  <published_type>  (142) 
IC50

>  <activity_comment>  (142) 
None

$$$$

     RDKit          

 39 43  0  0  0  0  0  0  0  0999 V2000
    0.0000    0.0000    0.0000 C   0  0  0  0  0  0  0  0  0  0  0  0
    0.0000    0.0000    0.0000 C   0  0  0  0  0  0  0  0  0  0  0  0
    0.0000    0.0000    0.0000 C   0  0  0  0  0  0  0  0  0  0  0  0
    0.0000    0.0000    0.0000 C   0  0  0  0  0  0  0  0  0  0  0  0
    0.0000    0.0000    0.0000 C   0  0  0  0  0  0  0  0  0  0  0  0
    0.0000    0.0000    0.0000 C   0  0  0  0  0  0  0  0  0  0  0  0
    0.0000    0.0000    0.0000 N   0  0  0  0  0  0  0  0  0  0  0  0
    0.0000    0.0000    0.0000 C   0  0  0  0  0  0  0  0  0  0  0  0
    0.0000    0.0000    0.0000 C   0  0  0  0  0  0  0  0  0  0  0  0
    0.0000    0.0000    0.0000 N   0  0  0  0  0  0  0  0  0  0  0  0
    0.0000    0.0000    0.0000 C   0  0  0  0  0  0  0  0  0  0  0  0
    0.0000    0.0000    0.0000 C   0  0  0  0  0  0  0  0  0  0  0  0
    0.0000    0.0000    0.0000 C   0  0  0  0  0  0  0  0  0  0  0  0
    0.0000    0.0000    0.0000 C   0  0  0  0  0  0  0  0  0  0  0  0
    0.0000    0.0000    0.0000 O   0  0  0  0  0  0  0  0  0  0  0  0
    0.0000    0.0000    0.0000 N   0  0  0  0  0  0  0  0  0  0  0  0
    0.0000    0.0000    0.0000 C   0  0  0  0  0  0  0  0  0  0  0  0
    0.0000    0.0000    0.0000 C   0  0  0  0  0  0  0  0  0  0  0  0
    0.0000    0.0000    0.0000 N   0  0  0  0  0  0  0  0  0  0  0  0
    0.0000    0.0000    0.0000 C   0  0  0  0  0  0  0  0  0  0  0  0
    0.0000    0.0000    0.0000 C   0  0  0  0  0  0  0  0  0  0  0  0
    0.0000    0.0000    0.0000 C   0  0  0  0  0  0  0  0  0  0  0  0
    0.0000    0.0000    0.0000 F   0  0  0  0  0  0  0  0  0  0  0  0
    0.0000    0.0000    0.0000 C   0  0  0  0  0  0  0  0  0  0  0  0
    0.0000    0.0000    0.0000 C   0  0  0  0  0  0  0  0  0  0  0  0
    0.0000    0.0000    0.0000 C   0  0  0  0  0  0  0  0  0  0  0  0
    0.0000    0.0000    0.0000 C   0  0  0  0  0  0  0  0  0  0  0  0
    0.0000    0.0000    0.0000 O   0  0  0  0  0  0  0  0  0  0  0  0
    0.0000    0.0000    0.0000 N   0  0  0  0  0  0  0  0  0  0  0  0
    0.0000    0.0000    0.0000 C   0  0  0  0  0  0  0  0  0  0  0  0
    0.0000    0.0000    0.0000 C   0  0  0  0  0  0  0  0  0  0  0  0
    0.0000    0.0000    0.0000 C   0  0  0  0  0  0  0  0  0  0  0  0
    0.0000    0.0000    0.0000 C   0  0  0  0  0  0  0  0  0  0  0  0
    0.0000    0.0000    0.0000 C   0  0  0  0  0  0  0  0  0  0  0  0
    0.0000    0.0000    0.0000 C   0  0  0  0  0  0  0  0  0  0  0  0
    0.0000    0.0000    0.0000 C   0  0  0  0  0  0  0  0  0  0  0  0
    0.0000    0.0000    0.0000 C   0  0  0  0  0  0  0  0  0  0  0  0
    0.0000    0.0000    0.0000 C   0  0  0  0  0  0  0  0  0  0  0  0
    0.0000    0.0000    0.0000 C   0  0  0  0  0  0  0  0  0  0  0  0
  1  2  1  0
  2  3  2  0
  3  4  1  0
  4  5  2  0
  5  6  1  0
  6  7  1  0
  7  8  1  0
  8  9  1  0
  9 10  1  0
 10 11  1  0
 11 12  1  0
 12 13  1  0
 13 14  1  0
 14 15  2  0
 14 16  1  0
 16 17  1  0
 17 18  1  0
 18 19  2  0
 19 20  1  0
 20 21  2  0
 21 22  1  0
 22 23  1  0
 22 24  2  0
 24 25  1  0
 25 26  2  0
 26 27  1  0
 27 28  2  0
 27 29  1  0
 29 30  1  0
 30 31  2  0
 31 32  1  0
 32 33  2  0
 33 34  1  0
 34 35  2  0
 10 36  1  0
 36 37  1  0
  6 38  2  0
 38 39  1  0
 38  2  1  0
 37  7  1  0
 29 18  1  0
 26 20  1  0
 35 30  1  0
M  END
>  <pIC50>  (143) 
5.82

>  <ChEMBL_ID>  (143) 
CHEMBL261102

>  <document_journal>  (143) 
Bioorg. Med. Chem.

>  <bao_endpoint>  (143) 
BAO_0000190

>  <potential_duplicate>  (143) 
False

>  <uo_units>  (143) 
UO_0000065

>  <canonical_smiles>  (143) 
Cc1cccc(N2CCN(CCCC(=O)NCC3=Nc4cc(F)ccc4C(=O)N3c5ccccc5)CC2)c1C

>  <parent_molecule_chembl_id>  (143) 
CHEMBL261102

>  <assay_type>  (143) 
B

>  <src_id>  (143) 
1

>  <ligand_efficiency>  (143) 
{u'le': u'0.2', u'bei': u'11.04', u'sei': u'8.53', u'lle': u'0.77'}

>  <standard_flag>  (143) 
True

>  <molecule_chembl_id>  (143) 
CHEMBL261102

>  <target_organism>  (143) 
Homo sapiens

>  <standard_units>  (143) 
nM

>  <record_id>  (143) 
706379

>  <document_chembl_id>  (143) 
CHEMBL1144677

>  <bao_format>  (143) 
BAO_0000357

>  <data_validity_description>  (143) 
None

>  <activity_id>  (143) 
2138450

>  <standard_type>  (143) 
IC50

>  <target_chembl_id>  (143) 
CHEMBL217

>  <data_validity_comment>  (143) 
None

>  <published_value>  (143) 
1500

>  <document_year>  (143) 
2008

>  <target_pref_name>  (143) 
Dopamine D2 receptor

>  <assay_chembl_id>  (143) 
CHEMBL920904

>  <standard_relation>  (143) 
=

>  <assay_description>  (143) 
Binding affinity at dopamine D2 receptor

>  <published_relation>  (143) 
=

>  <standard_value>  (143) 
1500

>  <qudt_units>  (143) 
http://www.openphacts.org/units/Nanomolar

>  <target_tax_id>  (143) 
9606

>  <bao_label>  (143) 
single protein format

>  <published_units>  (143) 
nM

>  <pchembl_value>  (143) 
5.82

>  <published_type>  (143) 
IC50

>  <activity_comment>  (143) 
None

$$$$

     RDKit          

 41 45  0  0  0  0  0  0  0  0999 V2000
    0.0000    0.0000    0.0000 F   0  0  0  0  0  0  0  0  0  0  0  0
    0.0000    0.0000    0.0000 C   0  0  0  0  0  0  0  0  0  0  0  0
    0.0000    0.0000    0.0000 C   0  0  0  0  0  0  0  0  0  0  0  0
    0.0000    0.0000    0.0000 C   0  0  0  0  0  0  0  0  0  0  0  0
    0.0000    0.0000    0.0000 C   0  0  0  0  0  0  0  0  0  0  0  0
    0.0000    0.0000    0.0000 C   0  0  0  0  0  0  0  0  0  0  0  0
    0.0000    0.0000    0.0000 O   0  0  0  0  0  0  0  0  0  0  0  0
    0.0000    0.0000    0.0000 N   0  0  0  0  0  0  0  0  0  0  0  0
    0.0000    0.0000    0.0000 C   0  0  0  0  0  0  0  0  0  0  0  0
    0.0000    0.0000    0.0000 N   0  0  0  0  0  0  0  0  0  0  0  0
    0.0000    0.0000    0.0000 C   0  0  0  0  0  0  0  0  0  0  0  0
    0.0000    0.0000    0.0000 C   0  0  0  0  0  0  0  0  0  0  0  0
    0.0000    0.0000    0.0000 C   0  0  0  0  0  0  0  0  0  0  0  0
    0.0000    0.0000    0.0000 N   0  0  0  0  0  0  0  0  0  0  0  0
    0.0000    0.0000    0.0000 C   0  0  0  0  0  0  0  0  0  0  0  0
    0.0000    0.0000    0.0000 O   0  0  0  0  0  0  0  0  0  0  0  0
    0.0000    0.0000    0.0000 C   0  0  0  0  0  0  0  0  0  0  0  0
    0.0000    0.0000    0.0000 C   0  0  0  0  0  0  0  0  0  0  0  0
    0.0000    0.0000    0.0000 C   0  0  0  0  0  0  0  0  0  0  0  0
    0.0000    0.0000    0.0000 N   0  0  0  0  0  0  0  0  0  0  0  0
    0.0000    0.0000    0.0000 C   0  0  0  0  0  0  0  0  0  0  0  0
    0.0000    0.0000    0.0000 C   0  0  0  0  0  0  0  0  0  0  0  0
    0.0000    0.0000    0.0000 N   0  0  0  0  0  0  0  0  0  0  0  0
    0.0000    0.0000    0.0000 C   0  0  0  0  0  0  0  0  0  0  0  0
    0.0000    0.0000    0.0000 C   0  0  0  0  0  0  0  0  0  0  0  0
    0.0000    0.0000    0.0000 C   0  0  0  0  0  0  0  0  0  0  0  0
    0.0000    0.0000    0.0000 C   0  0  0  0  0  0  0  0  0  0  0  0
    0.0000    0.0000    0.0000 C   0  0  0  0  0  0  0  0  0  0  0  0
    0.0000    0.0000    0.0000 C   0  0  0  0  0  0  0  0  0  0  0  0
    0.0000    0.0000    0.0000 C   0  0  0  0  0  0  0  0  0  0  0  0
    0.0000    0.0000    0.0000 C   0  0  0  0  0  0  0  0  0  0  0  0
    0.0000    0.0000    0.0000 C   0  0  0  0  0  0  0  0  0  0  0  0
    0.0000    0.0000    0.0000 F   0  0  0  0  0  0  0  0  0  0  0  0
    0.0000    0.0000    0.0000 F   0  0  0  0  0  0  0  0  0  0  0  0
    0.0000    0.0000    0.0000 F   0  0  0  0  0  0  0  0  0  0  0  0
    0.0000    0.0000    0.0000 C   0  0  0  0  0  0  0  0  0  0  0  0
    0.0000    0.0000    0.0000 C   0  0  0  0  0  0  0  0  0  0  0  0
    0.0000    0.0000    0.0000 C   0  0  0  0  0  0  0  0  0  0  0  0
    0.0000    0.0000    0.0000 C   0  0  0  0  0  0  0  0  0  0  0  0
    0.0000    0.0000    0.0000 C   0  0  0  0  0  0  0  0  0  0  0  0
    0.0000    0.0000    0.0000 C   0  0  0  0  0  0  0  0  0  0  0  0
  1  2  1  0
  2  3  2  0
  3  4  1  0
  4  5  2  0
  5  6  1  0
  6  7  2  0
  6  8  1  0
  8  9  1  0
  9 10  2  0
 10 11  1  0
 11 12  2  0
  9 13  1  0
 13 14  1  0
 14 15  1  0
 15 16  2  0
 15 17  1  0
 17 18  1  0
 18 19  1  0
 19 20  1  0
 20 21  1  0
 21 22  1  0
 22 23  1  0
 23 24  1  0
 24 25  1  0
 23 26  1  0
 26 27  2  0
 27 28  1  0
 28 29  2  0
 29 30  1  0
 30 31  2  0
 30 32  1  0
 32 33  1  0
 32 34  1  0
 32 35  1  0
  8 36  1  0
 36 37  2  0
 37 38  1  0
 38 39  2  0
 39 40  1  0
 40 41  2  0
 12  2  1  0
 11  5  1  0
 25 20  1  0
 31 26  1  0
 41 36  1  0
M  END
>  <pIC50>  (144) 
5.18

>  <ChEMBL_ID>  (144) 
CHEMBL261019

>  <document_journal>  (144) 
Bioorg. Med. Chem.

>  <bao_endpoint>  (144) 
BAO_0000190

>  <potential_duplicate>  (144) 
False

>  <uo_units>  (144) 
UO_0000065

>  <canonical_smiles>  (144) 
Fc1ccc2C(=O)N(C(=Nc2c1)CNC(=O)CCCN3CCN(CC3)c4cccc(c4)C(F)(F)F)c5ccccc5

>  <parent_molecule_chembl_id>  (144) 
CHEMBL261019

>  <assay_type>  (144) 
B

>  <src_id>  (144) 
1

>  <ligand_efficiency>  (144) 
{u'le': u'0.17', u'bei': u'9.13', u'sei': u'7.59', u'lle': u'0.16'}

>  <standard_flag>  (144) 
True

>  <molecule_chembl_id>  (144) 
CHEMBL261019

>  <target_organism>  (144) 
Homo sapiens

>  <standard_units>  (144) 
nM

>  <record_id>  (144) 
706387

>  <document_chembl_id>  (144) 
CHEMBL1144677

>  <bao_format>  (144) 
BAO_0000357

>  <data_validity_description>  (144) 
None

>  <activity_id>  (144) 
2138458

>  <standard_type>  (144) 
IC50

>  <target_chembl_id>  (144) 
CHEMBL217

>  <data_validity_comment>  (144) 
None

>  <published_value>  (144) 
6600

>  <document_year>  (144) 
2008

>  <target_pref_name>  (144) 
Dopamine D2 receptor

>  <assay_chembl_id>  (144) 
CHEMBL920904

>  <standard_relation>  (144) 
=

>  <assay_description>  (144) 
Binding affinity at dopamine D2 receptor

>  <published_relation>  (144) 
=

>  <standard_value>  (144) 
6600

>  <qudt_units>  (144) 
http://www.openphacts.org/units/Nanomolar

>  <target_tax_id>  (144) 
9606

>  <bao_label>  (144) 
single protein format

>  <published_units>  (144) 
nM

>  <pchembl_value>  (144) 
5.18

>  <published_type>  (144) 
IC50

>  <activity_comment>  (144) 
None

$$$$

     RDKit          

 39 43  0  0  0  0  0  0  0  0999 V2000
    0.0000    0.0000    0.0000 C   0  0  0  0  0  0  0  0  0  0  0  0
    0.0000    0.0000    0.0000 C   0  0  0  0  0  0  0  0  0  0  0  0
    0.0000    0.0000    0.0000 C   0  0  0  0  0  0  0  0  0  0  0  0
    0.0000    0.0000    0.0000 C   0  0  0  0  0  0  0  0  0  0  0  0
    0.0000    0.0000    0.0000 C   0  0  0  0  0  0  0  0  0  0  0  0
    0.0000    0.0000    0.0000 C   0  0  0  0  0  0  0  0  0  0  0  0
    0.0000    0.0000    0.0000 N   0  0  0  0  0  0  0  0  0  0  0  0
    0.0000    0.0000    0.0000 C   0  0  0  0  0  0  0  0  0  0  0  0
    0.0000    0.0000    0.0000 C   0  0  0  0  0  0  0  0  0  0  0  0
    0.0000    0.0000    0.0000 N   0  0  0  0  0  0  0  0  0  0  0  0
    0.0000    0.0000    0.0000 C   0  0  0  0  0  0  0  0  0  0  0  0
    0.0000    0.0000    0.0000 C   0  0  0  0  0  0  0  0  0  0  0  0
    0.0000    0.0000    0.0000 C   0  0  0  0  0  0  0  0  0  0  0  0
    0.0000    0.0000    0.0000 C   0  0  0  0  0  0  0  0  0  0  0  0
    0.0000    0.0000    0.0000 O   0  0  0  0  0  0  0  0  0  0  0  0
    0.0000    0.0000    0.0000 N   0  0  0  0  0  0  0  0  0  0  0  0
    0.0000    0.0000    0.0000 C   0  0  0  0  0  0  0  0  0  0  0  0
    0.0000    0.0000    0.0000 C   0  0  0  0  0  0  0  0  0  0  0  0
    0.0000    0.0000    0.0000 N   0  0  0  0  0  0  0  0  0  0  0  0
    0.0000    0.0000    0.0000 C   0  0  0  0  0  0  0  0  0  0  0  0
    0.0000    0.0000    0.0000 C   0  0  0  0  0  0  0  0  0  0  0  0
    0.0000    0.0000    0.0000 C   0  0  0  0  0  0  0  0  0  0  0  0
    0.0000    0.0000    0.0000 C   0  0  0  0  0  0  0  0  0  0  0  0
    0.0000    0.0000    0.0000 F   0  0  0  0  0  0  0  0  0  0  0  0
    0.0000    0.0000    0.0000 C   0  0  0  0  0  0  0  0  0  0  0  0
    0.0000    0.0000    0.0000 C   0  0  0  0  0  0  0  0  0  0  0  0
    0.0000    0.0000    0.0000 C   0  0  0  0  0  0  0  0  0  0  0  0
    0.0000    0.0000    0.0000 O   0  0  0  0  0  0  0  0  0  0  0  0
    0.0000    0.0000    0.0000 N   0  0  0  0  0  0  0  0  0  0  0  0
    0.0000    0.0000    0.0000 C   0  0  0  0  0  0  0  0  0  0  0  0
    0.0000    0.0000    0.0000 C   0  0  0  0  0  0  0  0  0  0  0  0
    0.0000    0.0000    0.0000 C   0  0  0  0  0  0  0  0  0  0  0  0
    0.0000    0.0000    0.0000 C   0  0  0  0  0  0  0  0  0  0  0  0
    0.0000    0.0000    0.0000 C   0  0  0  0  0  0  0  0  0  0  0  0
    0.0000    0.0000    0.0000 C   0  0  0  0  0  0  0  0  0  0  0  0
    0.0000    0.0000    0.0000 C   0  0  0  0  0  0  0  0  0  0  0  0
    0.0000    0.0000    0.0000 C   0  0  0  0  0  0  0  0  0  0  0  0
    0.0000    0.0000    0.0000 C   0  0  0  0  0  0  0  0  0  0  0  0
    0.0000    0.0000    0.0000 C   0  0  0  0  0  0  0  0  0  0  0  0
  1  2  1  0
  2  3  2  0
  3  4  1  0
  4  5  2  0
  5  6  1  0
  6  7  1  0
  7  8  1  0
  8  9  1  0
  9 10  1  0
 10 11  1  0
 11 12  1  0
 12 13  1  0
 13 14  1  0
 14 15  2  0
 14 16  1  0
 16 17  1  0
 17 18  1  0
 18 19  2  0
 19 20  1  0
 20 21  2  0
 21 22  1  0
 22 23  2  0
 23 24  1  0
 23 25  1  0
 25 26  2  0
 26 27  1  0
 27 28  2  0
 27 29  1  0
 29 30  1  0
 30 31  2  0
 31 32  1  0
 32 33  2  0
 33 34  1  0
 34 35  2  0
 10 36  1  0
 36 37  1  0
  6 38  2  0
 38 39  1  0
 38  2  1  0
 37  7  1  0
 29 18  1  0
 26 20  1  0
 35 30  1  0
M  END
>  <pIC50>  (145) 
5.4

>  <ChEMBL_ID>  (145) 
CHEMBL261434

>  <document_journal>  (145) 
Bioorg. Med. Chem.

>  <bao_endpoint>  (145) 
BAO_0000190

>  <potential_duplicate>  (145) 
False

>  <uo_units>  (145) 
UO_0000065

>  <canonical_smiles>  (145) 
Cc1cccc(N2CCN(CCCC(=O)NCC3=Nc4ccc(F)cc4C(=O)N3c5ccccc5)CC2)c1C

>  <parent_molecule_chembl_id>  (145) 
CHEMBL261434

>  <assay_type>  (145) 
B

>  <src_id>  (145) 
1

>  <ligand_efficiency>  (145) 
{u'le': u'0.19', u'bei': u'10.23', u'sei': u'7.91', u'lle': u'0.35'}

>  <standard_flag>  (145) 
True

>  <molecule_chembl_id>  (145) 
CHEMBL261434

>  <target_organism>  (145) 
Homo sapiens

>  <standard_units>  (145) 
nM

>  <record_id>  (145) 
706396

>  <document_chembl_id>  (145) 
CHEMBL1144677

>  <bao_format>  (145) 
BAO_0000357

>  <data_validity_description>  (145) 
None

>  <activity_id>  (145) 
2138466

>  <standard_type>  (145) 
IC50

>  <target_chembl_id>  (145) 
CHEMBL217

>  <data_validity_comment>  (145) 
None

>  <published_value>  (145) 
4000

>  <document_year>  (145) 
2008

>  <target_pref_name>  (145) 
Dopamine D2 receptor

>  <assay_chembl_id>  (145) 
CHEMBL920904

>  <standard_relation>  (145) 
=

>  <assay_description>  (145) 
Binding affinity at dopamine D2 receptor

>  <published_relation>  (145) 
=

>  <standard_value>  (145) 
4000

>  <qudt_units>  (145) 
http://www.openphacts.org/units/Nanomolar

>  <target_tax_id>  (145) 
9606

>  <bao_label>  (145) 
single protein format

>  <published_units>  (145) 
nM

>  <pchembl_value>  (145) 
5.4

>  <published_type>  (145) 
IC50

>  <activity_comment>  (145) 
None

$$$$

     RDKit          

 39 43  0  0  0  0  0  0  0  0999 V2000
    0.0000    0.0000    0.0000 C   0  0  0  0  0  0  0  0  0  0  0  0
    0.0000    0.0000    0.0000 O   0  0  0  0  0  0  0  0  0  0  0  0
    0.0000    0.0000    0.0000 C   0  0  0  0  0  0  0  0  0  0  0  0
    0.0000    0.0000    0.0000 C   0  0  0  0  0  0  0  0  0  0  0  0
    0.0000    0.0000    0.0000 C   0  0  0  0  0  0  0  0  0  0  0  0
    0.0000    0.0000    0.0000 C   0  0  0  0  0  0  0  0  0  0  0  0
    0.0000    0.0000    0.0000 C   0  0  0  0  0  0  0  0  0  0  0  0
    0.0000    0.0000    0.0000 C   0  0  0  0  0  0  0  0  0  0  0  0
    0.0000    0.0000    0.0000 N   0  0  0  0  0  0  0  0  0  0  0  0
    0.0000    0.0000    0.0000 C   0  0  0  0  0  0  0  0  0  0  0  0
    0.0000    0.0000    0.0000 C   0  0  0  0  0  0  0  0  0  0  0  0
    0.0000    0.0000    0.0000 N   0  0  0  0  0  0  0  0  0  0  0  0
    0.0000    0.0000    0.0000 C   0  0  0  0  0  0  0  0  0  0  0  0
    0.0000    0.0000    0.0000 C   0  0  0  0  0  0  0  0  0  0  0  0
    0.0000    0.0000    0.0000 C   0  0  0  0  0  0  0  0  0  0  0  0
    0.0000    0.0000    0.0000 C   0  0  0  0  0  0  0  0  0  0  0  0
    0.0000    0.0000    0.0000 O   0  0  0  0  0  0  0  0  0  0  0  0
    0.0000    0.0000    0.0000 N   0  0  0  0  0  0  0  0  0  0  0  0
    0.0000    0.0000    0.0000 C   0  0  0  0  0  0  0  0  0  0  0  0
    0.0000    0.0000    0.0000 C   0  0  0  0  0  0  0  0  0  0  0  0
    0.0000    0.0000    0.0000 N   0  0  0  0  0  0  0  0  0  0  0  0
    0.0000    0.0000    0.0000 C   0  0  0  0  0  0  0  0  0  0  0  0
    0.0000    0.0000    0.0000 C   0  0  0  0  0  0  0  0  0  0  0  0
    0.0000    0.0000    0.0000 C   0  0  0  0  0  0  0  0  0  0  0  0
    0.0000    0.0000    0.0000 C   0  0  0  0  0  0  0  0  0  0  0  0
    0.0000    0.0000    0.0000 F   0  0  0  0  0  0  0  0  0  0  0  0
    0.0000    0.0000    0.0000 C   0  0  0  0  0  0  0  0  0  0  0  0
    0.0000    0.0000    0.0000 C   0  0  0  0  0  0  0  0  0  0  0  0
    0.0000    0.0000    0.0000 C   0  0  0  0  0  0  0  0  0  0  0  0
    0.0000    0.0000    0.0000 O   0  0  0  0  0  0  0  0  0  0  0  0
    0.0000    0.0000    0.0000 N   0  0  0  0  0  0  0  0  0  0  0  0
    0.0000    0.0000    0.0000 C   0  0  0  0  0  0  0  0  0  0  0  0
    0.0000    0.0000    0.0000 C   0  0  0  0  0  0  0  0  0  0  0  0
    0.0000    0.0000    0.0000 C   0  0  0  0  0  0  0  0  0  0  0  0
    0.0000    0.0000    0.0000 C   0  0  0  0  0  0  0  0  0  0  0  0
    0.0000    0.0000    0.0000 C   0  0  0  0  0  0  0  0  0  0  0  0
    0.0000    0.0000    0.0000 C   0  0  0  0  0  0  0  0  0  0  0  0
    0.0000    0.0000    0.0000 C   0  0  0  0  0  0  0  0  0  0  0  0
    0.0000    0.0000    0.0000 C   0  0  0  0  0  0  0  0  0  0  0  0
  1  2  1  0
  2  3  1  0
  3  4  2  0
  4  5  1  0
  5  6  2  0
  6  7  1  0
  7  8  2  0
  8  9  1  0
  9 10  1  0
 10 11  1  0
 11 12  1  0
 12 13  1  0
 13 14  1  0
 14 15  1  0
 15 16  1  0
 16 17  2  0
 16 18  1  0
 18 19  1  0
 19 20  1  0
 20 21  2  0
 21 22  1  0
 22 23  2  0
 23 24  1  0
 24 25  2  0
 25 26  1  0
 25 27  1  0
 27 28  2  0
 28 29  1  0
 29 30  2  0
 29 31  1  0
 31 32  1  0
 32 33  2  0
 33 34  1  0
 34 35  2  0
 35 36  1  0
 36 37  2  0
 12 38  1  0
 38 39  1  0
  8  3  1  0
 39  9  1  0
 31 20  1  0
 28 22  1  0
 37 32  1  0
M  END
>  <pIC50>  (146) 
5.28

>  <ChEMBL_ID>  (146) 
CHEMBL259776

>  <document_journal>  (146) 
Bioorg. Med. Chem.

>  <bao_endpoint>  (146) 
BAO_0000190

>  <potential_duplicate>  (146) 
False

>  <uo_units>  (146) 
UO_0000065

>  <canonical_smiles>  (146) 
COc1ccccc1N2CCN(CCCC(=O)NCC3=Nc4ccc(F)cc4C(=O)N3c5ccccc5)CC2

>  <parent_molecule_chembl_id>  (146) 
CHEMBL259776

>  <assay_type>  (146) 
B

>  <src_id>  (146) 
1

>  <ligand_efficiency>  (146) 
{u'le': u'0.18', u'bei': u'9.96', u'sei': u'6.81', u'lle': u'1.21'}

>  <standard_flag>  (146) 
True

>  <molecule_chembl_id>  (146) 
CHEMBL259776

>  <target_organism>  (146) 
Homo sapiens

>  <standard_units>  (146) 
nM

>  <record_id>  (146) 
706400

>  <document_chembl_id>  (146) 
CHEMBL1144677

>  <bao_format>  (146) 
BAO_0000357

>  <data_validity_description>  (146) 
None

>  <activity_id>  (146) 
2138474

>  <standard_type>  (146) 
IC50

>  <target_chembl_id>  (146) 
CHEMBL217

>  <data_validity_comment>  (146) 
None

>  <published_value>  (146) 
5300

>  <document_year>  (146) 
2008

>  <target_pref_name>  (146) 
Dopamine D2 receptor

>  <assay_chembl_id>  (146) 
CHEMBL920904

>  <standard_relation>  (146) 
=

>  <assay_description>  (146) 
Binding affinity at dopamine D2 receptor

>  <published_relation>  (146) 
=

>  <standard_value>  (146) 
5300

>  <qudt_units>  (146) 
http://www.openphacts.org/units/Nanomolar

>  <target_tax_id>  (146) 
9606

>  <bao_label>  (146) 
single protein format

>  <published_units>  (146) 
nM

>  <pchembl_value>  (146) 
5.28

>  <published_type>  (146) 
IC50

>  <activity_comment>  (146) 
None

$$$$

     RDKit          

 40 44  0  0  0  0  0  0  0  0999 V2000
    0.0000    0.0000    0.0000 C   0  0  0  0  0  0  0  0  0  0  0  0
    0.0000    0.0000    0.0000 C   0  0  0  0  0  0  0  0  0  0  0  0
    0.0000    0.0000    0.0000 O   0  0  0  0  0  0  0  0  0  0  0  0
    0.0000    0.0000    0.0000 C   0  0  0  0  0  0  0  0  0  0  0  0
    0.0000    0.0000    0.0000 C   0  0  0  0  0  0  0  0  0  0  0  0
    0.0000    0.0000    0.0000 C   0  0  0  0  0  0  0  0  0  0  0  0
    0.0000    0.0000    0.0000 C   0  0  0  0  0  0  0  0  0  0  0  0
    0.0000    0.0000    0.0000 C   0  0  0  0  0  0  0  0  0  0  0  0
    0.0000    0.0000    0.0000 C   0  0  0  0  0  0  0  0  0  0  0  0
    0.0000    0.0000    0.0000 N   0  0  0  0  0  0  0  0  0  0  0  0
    0.0000    0.0000    0.0000 C   0  0  0  0  0  0  0  0  0  0  0  0
    0.0000    0.0000    0.0000 C   0  0  0  0  0  0  0  0  0  0  0  0
    0.0000    0.0000    0.0000 N   0  0  0  0  0  0  0  0  0  0  0  0
    0.0000    0.0000    0.0000 C   0  0  0  0  0  0  0  0  0  0  0  0
    0.0000    0.0000    0.0000 C   0  0  0  0  0  0  0  0  0  0  0  0
    0.0000    0.0000    0.0000 C   0  0  0  0  0  0  0  0  0  0  0  0
    0.0000    0.0000    0.0000 C   0  0  0  0  0  0  0  0  0  0  0  0
    0.0000    0.0000    0.0000 O   0  0  0  0  0  0  0  0  0  0  0  0
    0.0000    0.0000    0.0000 N   0  0  0  0  0  0  0  0  0  0  0  0
    0.0000    0.0000    0.0000 C   0  0  0  0  0  0  0  0  0  0  0  0
    0.0000    0.0000    0.0000 C   0  0  0  0  0  0  0  0  0  0  0  0
    0.0000    0.0000    0.0000 N   0  0  0  0  0  0  0  0  0  0  0  0
    0.0000    0.0000    0.0000 C   0  0  0  0  0  0  0  0  0  0  0  0
    0.0000    0.0000    0.0000 C   0  0  0  0  0  0  0  0  0  0  0  0
    0.0000    0.0000    0.0000 C   0  0  0  0  0  0  0  0  0  0  0  0
    0.0000    0.0000    0.0000 C   0  0  0  0  0  0  0  0  0  0  0  0
    0.0000    0.0000    0.0000 F   0  0  0  0  0  0  0  0  0  0  0  0
    0.0000    0.0000    0.0000 C   0  0  0  0  0  0  0  0  0  0  0  0
    0.0000    0.0000    0.0000 C   0  0  0  0  0  0  0  0  0  0  0  0
    0.0000    0.0000    0.0000 C   0  0  0  0  0  0  0  0  0  0  0  0
    0.0000    0.0000    0.0000 O   0  0  0  0  0  0  0  0  0  0  0  0
    0.0000    0.0000    0.0000 N   0  0  0  0  0  0  0  0  0  0  0  0
    0.0000    0.0000    0.0000 C   0  0  0  0  0  0  0  0  0  0  0  0
    0.0000    0.0000    0.0000 C   0  0  0  0  0  0  0  0  0  0  0  0
    0.0000    0.0000    0.0000 C   0  0  0  0  0  0  0  0  0  0  0  0
    0.0000    0.0000    0.0000 C   0  0  0  0  0  0  0  0  0  0  0  0
    0.0000    0.0000    0.0000 C   0  0  0  0  0  0  0  0  0  0  0  0
    0.0000    0.0000    0.0000 C   0  0  0  0  0  0  0  0  0  0  0  0
    0.0000    0.0000    0.0000 C   0  0  0  0  0  0  0  0  0  0  0  0
    0.0000    0.0000    0.0000 C   0  0  0  0  0  0  0  0  0  0  0  0
  1  2  1  0
  2  3  1  0
  3  4  1  0
  4  5  2  0
  5  6  1  0
  6  7  2  0
  7  8  1  0
  8  9  2  0
  9 10  1  0
 10 11  1  0
 11 12  1  0
 12 13  1  0
 13 14  1  0
 14 15  1  0
 15 16  1  0
 16 17  1  0
 17 18  2  0
 17 19  1  0
 19 20  1  0
 20 21  1  0
 21 22  2  0
 22 23  1  0
 23 24  2  0
 24 25  1  0
 25 26  2  0
 26 27  1  0
 26 28  1  0
 28 29  2  0
 29 30  1  0
 30 31  2  0
 30 32  1  0
 32 33  1  0
 33 34  2  0
 34 35  1  0
 35 36  2  0
 36 37  1  0
 37 38  2  0
 13 39  1  0
 39 40  1  0
  9  4  1  0
 40 10  1  0
 32 21  1  0
 29 23  1  0
 38 33  1  0
M  END
>  <pIC50>  (147) 
6.0

>  <ChEMBL_ID>  (147) 
CHEMBL260907

>  <document_journal>  (147) 
Bioorg. Med. Chem.

>  <bao_endpoint>  (147) 
BAO_0000190

>  <potential_duplicate>  (147) 
False

>  <uo_units>  (147) 
UO_0000065

>  <canonical_smiles>  (147) 
CCOc1ccccc1N2CCN(CCCC(=O)NCC3=Nc4ccc(F)cc4C(=O)N3c5ccccc5)CC2

>  <parent_molecule_chembl_id>  (147) 
CHEMBL260907

>  <assay_type>  (147) 
B

>  <src_id>  (147) 
1

>  <ligand_efficiency>  (147) 
{u'le': u'0.2', u'bei': u'11.04', u'sei': u'7.74', u'lle': u'1.59'}

>  <standard_flag>  (147) 
True

>  <molecule_chembl_id>  (147) 
CHEMBL260907

>  <target_organism>  (147) 
Homo sapiens

>  <standard_units>  (147) 
nM

>  <record_id>  (147) 
706403

>  <document_chembl_id>  (147) 
CHEMBL1144677

>  <bao_format>  (147) 
BAO_0000357

>  <data_validity_description>  (147) 
None

>  <activity_id>  (147) 
2138482

>  <standard_type>  (147) 
IC50

>  <target_chembl_id>  (147) 
CHEMBL217

>  <data_validity_comment>  (147) 
None

>  <published_value>  (147) 
1000

>  <document_year>  (147) 
2008

>  <target_pref_name>  (147) 
Dopamine D2 receptor

>  <assay_chembl_id>  (147) 
CHEMBL920904

>  <standard_relation>  (147) 
=

>  <assay_description>  (147) 
Binding affinity at dopamine D2 receptor

>  <published_relation>  (147) 
=

>  <standard_value>  (147) 
1000

>  <qudt_units>  (147) 
http://www.openphacts.org/units/Nanomolar

>  <target_tax_id>  (147) 
9606

>  <bao_label>  (147) 
single protein format

>  <published_units>  (147) 
nM

>  <pchembl_value>  (147) 
6

>  <published_type>  (147) 
IC50

>  <activity_comment>  (147) 
None

$$$$

     RDKit          

 42 46  0  0  0  0  0  0  0  0999 V2000
    0.0000    0.0000    0.0000 C   0  0  0  0  0  0  0  0  0  0  0  0
    0.0000    0.0000    0.0000 C   0  0  0  0  0  0  0  0  0  0  0  0
    0.0000    0.0000    0.0000 O   0  0  0  0  0  0  0  0  0  0  0  0
    0.0000    0.0000    0.0000 C   0  0  0  0  0  0  0  0  0  0  0  0
    0.0000    0.0000    0.0000 C   0  0  0  0  0  0  0  0  0  0  0  0
    0.0000    0.0000    0.0000 C   0  0  0  0  0  0  0  0  0  0  0  0
    0.0000    0.0000    0.0000 C   0  0  0  0  0  0  0  0  0  0  0  0
    0.0000    0.0000    0.0000 C   0  0  0  0  0  0  0  0  0  0  0  0
    0.0000    0.0000    0.0000 C   0  0  0  0  0  0  0  0  0  0  0  0
    0.0000    0.0000    0.0000 N   0  0  0  0  0  0  0  0  0  0  0  0
    0.0000    0.0000    0.0000 C   0  0  0  0  0  0  0  0  0  0  0  0
    0.0000    0.0000    0.0000 C   0  0  0  0  0  0  0  0  0  0  0  0
    0.0000    0.0000    0.0000 N   0  0  0  0  0  0  0  0  0  0  0  0
    0.0000    0.0000    0.0000 C   0  0  0  0  0  0  0  0  0  0  0  0
    0.0000    0.0000    0.0000 C   0  0  0  0  0  0  0  0  0  0  0  0
    0.0000    0.0000    0.0000 C   0  0  0  0  0  0  0  0  0  0  0  0
    0.0000    0.0000    0.0000 C   0  0  0  0  0  0  0  0  0  0  0  0
    0.0000    0.0000    0.0000 O   0  0  0  0  0  0  0  0  0  0  0  0
    0.0000    0.0000    0.0000 N   0  0  0  0  0  0  0  0  0  0  0  0
    0.0000    0.0000    0.0000 C   0  0  0  0  0  0  0  0  0  0  0  0
    0.0000    0.0000    0.0000 C   0  0  0  0  0  0  0  0  0  0  0  0
    0.0000    0.0000    0.0000 N   0  0  0  0  0  0  0  0  0  0  0  0
    0.0000    0.0000    0.0000 C   0  0  0  0  0  0  0  0  0  0  0  0
    0.0000    0.0000    0.0000 C   0  0  0  0  0  0  0  0  0  0  0  0
    0.0000    0.0000    0.0000 C   0  0  0  0  0  0  0  0  0  0  0  0
    0.0000    0.0000    0.0000 F   0  0  0  0  0  0  0  0  0  0  0  0
    0.0000    0.0000    0.0000 C   0  0  0  0  0  0  0  0  0  0  0  0
    0.0000    0.0000    0.0000 C   0  0  0  0  0  0  0  0  0  0  0  0
    0.0000    0.0000    0.0000 C   0  0  0  0  0  0  0  0  0  0  0  0
    0.0000    0.0000    0.0000 C   0  0  0  0  0  0  0  0  0  0  0  0
    0.0000    0.0000    0.0000 O   0  0  0  0  0  0  0  0  0  0  0  0
    0.0000    0.0000    0.0000 N   0  0  0  0  0  0  0  0  0  0  0  0
    0.0000    0.0000    0.0000 C   0  0  0  0  0  0  0  0  0  0  0  0
    0.0000    0.0000    0.0000 C   0  0  0  0  0  0  0  0  0  0  0  0
    0.0000    0.0000    0.0000 C   0  0  0  0  0  0  0  0  0  0  0  0
    0.0000    0.0000    0.0000 C   0  0  0  0  0  0  0  0  0  0  0  0
    0.0000    0.0000    0.0000 O   0  0  0  0  0  0  0  0  0  0  0  0
    0.0000    0.0000    0.0000 C   0  0  0  0  0  0  0  0  0  0  0  0
    0.0000    0.0000    0.0000 C   0  0  0  0  0  0  0  0  0  0  0  0
    0.0000    0.0000    0.0000 C   0  0  0  0  0  0  0  0  0  0  0  0
    0.0000    0.0000    0.0000 C   0  0  0  0  0  0  0  0  0  0  0  0
    0.0000    0.0000    0.0000 C   0  0  0  0  0  0  0  0  0  0  0  0
  1  2  1  0
  2  3  1  0
  3  4  1  0
  4  5  2  0
  5  6  1  0
  6  7  2  0
  7  8  1  0
  8  9  2  0
  9 10  1  0
 10 11  1  0
 11 12  1  0
 12 13  1  0
 13 14  1  0
 14 15  1  0
 15 16  1  0
 16 17  1  0
 17 18  2  0
 17 19  1  0
 19 20  1  0
 20 21  1  0
 21 22  2  0
 22 23  1  0
 23 24  2  0
 24 25  1  0
 25 26  1  0
 25 27  2  0
 27 28  1  0
 28 29  2  0
 29 30  1  0
 30 31  2  0
 30 32  1  0
 32 33  1  0
 33 34  2  0
 34 35  1  0
 35 36  2  0
 36 37  1  0
 37 38  1  0
 36 39  1  0
 39 40  2  0
 13 41  1  0
 41 42  1  0
  9  4  1  0
 42 10  1  0
 32 21  1  0
 29 23  1  0
 40 33  1  0
M  END
>  <pIC50>  (148) 
5.82

>  <ChEMBL_ID>  (148) 
CHEMBL259199

>  <document_journal>  (148) 
Bioorg. Med. Chem.

>  <bao_endpoint>  (148) 
BAO_0000190

>  <potential_duplicate>  (148) 
False

>  <uo_units>  (148) 
UO_0000065

>  <canonical_smiles>  (148) 
CCOc1ccccc1N2CCN(CCCC(=O)NCC3=Nc4cc(F)ccc4C(=O)N3c5ccc(OC)cc5)CC2

>  <parent_molecule_chembl_id>  (148) 
CHEMBL259199

>  <assay_type>  (148) 
B

>  <src_id>  (148) 
1

>  <ligand_efficiency>  (148) 
{u'le': u'0.19', u'bei': u'10.15', u'sei': u'6.72', u'lle': u'1.42'}

>  <standard_flag>  (148) 
True

>  <molecule_chembl_id>  (148) 
CHEMBL259199

>  <target_organism>  (148) 
Homo sapiens

>  <standard_units>  (148) 
nM

>  <record_id>  (148) 
706418

>  <document_chembl_id>  (148) 
CHEMBL1144677

>  <bao_format>  (148) 
BAO_0000357

>  <data_validity_description>  (148) 
None

>  <activity_id>  (148) 
2138490

>  <standard_type>  (148) 
IC50

>  <target_chembl_id>  (148) 
CHEMBL217

>  <data_validity_comment>  (148) 
None

>  <published_value>  (148) 
1500

>  <document_year>  (148) 
2008

>  <target_pref_name>  (148) 
Dopamine D2 receptor

>  <assay_chembl_id>  (148) 
CHEMBL920904

>  <standard_relation>  (148) 
=

>  <assay_description>  (148) 
Binding affinity at dopamine D2 receptor

>  <published_relation>  (148) 
=

>  <standard_value>  (148) 
1500

>  <qudt_units>  (148) 
http://www.openphacts.org/units/Nanomolar

>  <target_tax_id>  (148) 
9606

>  <bao_label>  (148) 
single protein format

>  <published_units>  (148) 
nM

>  <pchembl_value>  (148) 
5.82

>  <published_type>  (148) 
IC50

>  <activity_comment>  (148) 
None

$$$$

     RDKit          

 42 46  0  0  0  0  0  0  0  0999 V2000
    0.0000    0.0000    0.0000 C   0  0  0  0  0  0  0  0  0  0  0  0
    0.0000    0.0000    0.0000 C   0  0  0  0  0  0  0  0  0  0  0  0
    0.0000    0.0000    0.0000 O   0  0  0  0  0  0  0  0  0  0  0  0
    0.0000    0.0000    0.0000 C   0  0  0  0  0  0  0  0  0  0  0  0
    0.0000    0.0000    0.0000 C   0  0  0  0  0  0  0  0  0  0  0  0
    0.0000    0.0000    0.0000 C   0  0  0  0  0  0  0  0  0  0  0  0
    0.0000    0.0000    0.0000 C   0  0  0  0  0  0  0  0  0  0  0  0
    0.0000    0.0000    0.0000 C   0  0  0  0  0  0  0  0  0  0  0  0
    0.0000    0.0000    0.0000 C   0  0  0  0  0  0  0  0  0  0  0  0
    0.0000    0.0000    0.0000 N   0  0  0  0  0  0  0  0  0  0  0  0
    0.0000    0.0000    0.0000 C   0  0  0  0  0  0  0  0  0  0  0  0
    0.0000    0.0000    0.0000 C   0  0  0  0  0  0  0  0  0  0  0  0
    0.0000    0.0000    0.0000 N   0  0  0  0  0  0  0  0  0  0  0  0
    0.0000    0.0000    0.0000 C   0  0  0  0  0  0  0  0  0  0  0  0
    0.0000    0.0000    0.0000 C   0  0  0  0  0  0  0  0  0  0  0  0
    0.0000    0.0000    0.0000 C   0  0  0  0  0  0  0  0  0  0  0  0
    0.0000    0.0000    0.0000 C   0  0  0  0  0  0  0  0  0  0  0  0
    0.0000    0.0000    0.0000 O   0  0  0  0  0  0  0  0  0  0  0  0
    0.0000    0.0000    0.0000 N   0  0  0  0  0  0  0  0  0  0  0  0
    0.0000    0.0000    0.0000 C   0  0  0  0  0  0  0  0  0  0  0  0
    0.0000    0.0000    0.0000 C   0  0  0  0  0  0  0  0  0  0  0  0
    0.0000    0.0000    0.0000 N   0  0  0  0  0  0  0  0  0  0  0  0
    0.0000    0.0000    0.0000 C   0  0  0  0  0  0  0  0  0  0  0  0
    0.0000    0.0000    0.0000 C   0  0  0  0  0  0  0  0  0  0  0  0
    0.0000    0.0000    0.0000 C   0  0  0  0  0  0  0  0  0  0  0  0
    0.0000    0.0000    0.0000 C   0  0  0  0  0  0  0  0  0  0  0  0
    0.0000    0.0000    0.0000 F   0  0  0  0  0  0  0  0  0  0  0  0
    0.0000    0.0000    0.0000 C   0  0  0  0  0  0  0  0  0  0  0  0
    0.0000    0.0000    0.0000 C   0  0  0  0  0  0  0  0  0  0  0  0
    0.0000    0.0000    0.0000 C   0  0  0  0  0  0  0  0  0  0  0  0
    0.0000    0.0000    0.0000 O   0  0  0  0  0  0  0  0  0  0  0  0
    0.0000    0.0000    0.0000 N   0  0  0  0  0  0  0  0  0  0  0  0
    0.0000    0.0000    0.0000 C   0  0  0  0  0  0  0  0  0  0  0  0
    0.0000    0.0000    0.0000 C   0  0  0  0  0  0  0  0  0  0  0  0
    0.0000    0.0000    0.0000 C   0  0  0  0  0  0  0  0  0  0  0  0
    0.0000    0.0000    0.0000 C   0  0  0  0  0  0  0  0  0  0  0  0
    0.0000    0.0000    0.0000 O   0  0  0  0  0  0  0  0  0  0  0  0
    0.0000    0.0000    0.0000 C   0  0  0  0  0  0  0  0  0  0  0  0
    0.0000    0.0000    0.0000 C   0  0  0  0  0  0  0  0  0  0  0  0
    0.0000    0.0000    0.0000 C   0  0  0  0  0  0  0  0  0  0  0  0
    0.0000    0.0000    0.0000 C   0  0  0  0  0  0  0  0  0  0  0  0
    0.0000    0.0000    0.0000 C   0  0  0  0  0  0  0  0  0  0  0  0
  1  2  1  0
  2  3  1  0
  3  4  1  0
  4  5  2  0
  5  6  1  0
  6  7  2  0
  7  8  1  0
  8  9  2  0
  9 10  1  0
 10 11  1  0
 11 12  1  0
 12 13  1  0
 13 14  1  0
 14 15  1  0
 15 16  1  0
 16 17  1  0
 17 18  2  0
 17 19  1  0
 19 20  1  0
 20 21  1  0
 21 22  2  0
 22 23  1  0
 23 24  2  0
 24 25  1  0
 25 26  2  0
 26 27  1  0
 26 28  1  0
 28 29  2  0
 29 30  1  0
 30 31  2  0
 30 32  1  0
 32 33  1  0
 33 34  2  0
 34 35  1  0
 35 36  2  0
 36 37  1  0
 37 38  1  0
 36 39  1  0
 39 40  2  0
 13 41  1  0
 41 42  1  0
  9  4  1  0
 42 10  1  0
 32 21  1  0
 29 23  1  0
 40 33  1  0
M  END
>  <pIC50>  (149) 
6.85

>  <ChEMBL_ID>  (149) 
CHEMBL406221

>  <document_journal>  (149) 
Bioorg. Med. Chem.

>  <bao_endpoint>  (149) 
BAO_0000190

>  <potential_duplicate>  (149) 
False

>  <uo_units>  (149) 
UO_0000065

>  <canonical_smiles>  (149) 
CCOc1ccccc1N2CCN(CCCC(=O)NCC3=Nc4ccc(F)cc4C(=O)N3c5ccc(OC)cc5)CC2

>  <parent_molecule_chembl_id>  (149) 
CHEMBL406221

>  <assay_type>  (149) 
B

>  <src_id>  (149) 
1

>  <ligand_efficiency>  (149) 
{u'le': u'0.22', u'bei': u'11.95', u'sei': u'7.9', u'lle': u'2.45'}

>  <standard_flag>  (149) 
True

>  <molecule_chembl_id>  (149) 
CHEMBL406221

>  <target_organism>  (149) 
Homo sapiens

>  <standard_units>  (149) 
nM

>  <record_id>  (149) 
706420

>  <document_chembl_id>  (149) 
CHEMBL1144677

>  <bao_format>  (149) 
BAO_0000357

>  <data_validity_description>  (149) 
None

>  <activity_id>  (149) 
2138498

>  <standard_type>  (149) 
IC50

>  <target_chembl_id>  (149) 
CHEMBL217

>  <data_validity_comment>  (149) 
None

>  <published_value>  (149) 
140

>  <document_year>  (149) 
2008

>  <target_pref_name>  (149) 
Dopamine D2 receptor

>  <assay_chembl_id>  (149) 
CHEMBL920904

>  <standard_relation>  (149) 
=

>  <assay_description>  (149) 
Binding affinity at dopamine D2 receptor

>  <published_relation>  (149) 
=

>  <standard_value>  (149) 
140

>  <qudt_units>  (149) 
http://www.openphacts.org/units/Nanomolar

>  <target_tax_id>  (149) 
9606

>  <bao_label>  (149) 
single protein format

>  <published_units>  (149) 
nM

>  <pchembl_value>  (149) 
6.85

>  <published_type>  (149) 
IC50

>  <activity_comment>  (149) 
None

$$$$

     RDKit          

 26 27  0  0  0  0  0  0  0  0999 V2000
    0.0000    0.0000    0.0000 C   0  0  0  0  0  0  0  0  0  0  0  0
    0.0000    0.0000    0.0000 O   0  0  0  0  0  0  0  0  0  0  0  0
    0.0000    0.0000    0.0000 C   0  0  0  0  0  0  0  0  0  0  0  0
    0.0000    0.0000    0.0000 C   0  0  0  0  0  0  0  0  0  0  0  0
    0.0000    0.0000    0.0000 C   0  0  0  0  0  0  0  0  0  0  0  0
    0.0000    0.0000    0.0000 C   0  0  0  0  0  0  0  0  0  0  0  0
    0.0000    0.0000    0.0000 C   0  0  0  0  0  0  0  0  0  0  0  0
    0.0000    0.0000    0.0000 C   0  0  0  0  0  0  0  0  0  0  0  0
    0.0000    0.0000    0.0000 F   0  0  0  0  0  0  0  0  0  0  0  0
    0.0000    0.0000    0.0000 C   0  0  0  0  0  0  0  0  0  0  0  0
    0.0000    0.0000    0.0000 C   0  0  0  0  0  0  0  0  0  0  0  0
    0.0000    0.0000    0.0000 C   0  0  0  0  0  0  0  0  0  0  0  0
    0.0000    0.0000    0.0000 O   0  0  0  0  0  0  0  0  0  0  0  0
    0.0000    0.0000    0.0000 N   0  0  0  0  0  0  0  0  0  0  0  0
    0.0000    0.0000    0.0000 C   0  0  0  0  0  0  0  0  0  0  0  0
    0.0000    0.0000    0.0000 C   0  0  0  0  0  0  0  0  0  0  0  0
    0.0000    0.0000    0.0000 C   0  0  0  0  0  0  0  0  0  0  0  0
    0.0000    0.0000    0.0000 C   0  0  0  0  0  0  0  0  0  0  0  0
    0.0000    0.0000    0.0000 C   0  0  0  0  0  0  0  0  0  0  0  0
    0.0000    0.0000    0.0000 N   0  0  0  0  0  0  0  0  0  0  0  0
    0.0000    0.0000    0.0000 C   0  0  0  0  0  0  0  0  0  0  0  0
    0.0000    0.0000    0.0000 C   0  0  0  0  0  0  0  0  0  0  0  0
    0.0000    0.0000    0.0000 C   0  0  0  0  0  0  0  0  0  0  0  0
    0.0000    0.0000    0.0000 C   0  0  0  0  0  0  0  0  0  0  0  0
    0.0000    0.0000    0.0000 O   0  0  0  0  0  0  0  0  0  0  0  0
    0.0000    0.0000    0.0000 C   0  0  0  0  0  0  0  0  0  0  0  0
  1  2  1  0
  2  3  1  0
  3  4  2  0
  4  5  1  0
  5  6  1  0
  6  7  1  0
  7  8  1  0
  8  9  1  0
  5 10  2  0
 10 11  1  0
 11 12  1  0
 12 13  2  0
 12 14  1  0
 14 15  1  0
 15 16  1  0
 16 17  1  0
 17 18  1  0
 18 19  1  0
 19 20  1  0
 20 21  1  0
 21 22  1  0
 22 23  2  0
 11 24  2  0
 24 25  1  0
 25 26  1  0
 24  3  1  0
 20 16  1  0
M  END
>  <pIC50>  (150) 
8.3

>  <ChEMBL_ID>  (150) 
CHEMBL392158

>  <document_journal>  (150) 
Bioorg. Med. Chem. Lett.

>  <bao_endpoint>  (150) 
BAO_0000190

>  <potential_duplicate>  (150) 
False

>  <uo_units>  (150) 
UO_0000065

>  <canonical_smiles>  (150) 
COc1cc(CCCF)cc(C(=O)NC[C@@H]2CCCN2CC=C)c1OC

>  <parent_molecule_chembl_id>  (150) 
CHEMBL392158

>  <assay_type>  (150) 
F

>  <src_id>  (150) 
1

>  <ligand_efficiency>  (150) 
None

>  <standard_flag>  (150) 
True

>  <molecule_chembl_id>  (150) 
CHEMBL392158

>  <target_organism>  (150) 
Homo sapiens

>  <standard_units>  (150) 
nM

>  <record_id>  (150) 
796060

>  <document_chembl_id>  (150) 
CHEMBL1156607

>  <bao_format>  (150) 
BAO_0000019

>  <data_validity_description>  (150) 
None

>  <activity_id>  (150) 
2227393

>  <standard_type>  (150) 
IC50

>  <target_chembl_id>  (150) 
CHEMBL217

>  <data_validity_comment>  (150) 
None

>  <published_value>  (150) 
5

>  <document_year>  (150) 
2008

>  <target_pref_name>  (150) 
Dopamine D2 receptor

>  <assay_chembl_id>  (150) 
CHEMBL1005621

>  <standard_relation>  (150) 
=

>  <assay_description>  (150) 
Antagonist activity at dopamine D2 receptor

>  <published_relation>  (150) 
=

>  <standard_value>  (150) 
5

>  <qudt_units>  (150) 
http://www.openphacts.org/units/Nanomolar

>  <target_tax_id>  (150) 
9606

>  <bao_label>  (150) 
assay format

>  <published_units>  (150) 
nM

>  <pchembl_value>  (150) 
8.3

>  <published_type>  (150) 
IC50

>  <activity_comment>  (150) 
None

$$$$

     RDKit          

 26 27  0  0  0  0  0  0  0  0999 V2000
    0.0000    0.0000    0.0000 C   0  0  0  0  0  0  0  0  0  0  0  0
    0.0000    0.0000    0.0000 O   0  0  0  0  0  0  0  0  0  0  0  0
    0.0000    0.0000    0.0000 C   0  0  0  0  0  0  0  0  0  0  0  0
    0.0000    0.0000    0.0000 C   0  0  0  0  0  0  0  0  0  0  0  0
    0.0000    0.0000    0.0000 C   0  0  0  0  0  0  0  0  0  0  0  0
    0.0000    0.0000    0.0000 C   0  0  0  0  0  0  0  0  0  0  0  0
    0.0000    0.0000    0.0000 C   0  0  0  0  0  0  0  0  0  0  0  0
    0.0000    0.0000    0.0000 C   0  0  0  0  0  0  0  0  0  0  0  0
    0.0000    0.0000    0.0000 Cl  0  0  0  0  0  0  0  0  0  0  0  0
    0.0000    0.0000    0.0000 C   0  0  0  0  0  0  0  0  0  0  0  0
    0.0000    0.0000    0.0000 C   0  0  0  0  0  0  0  0  0  0  0  0
    0.0000    0.0000    0.0000 C   0  0  0  0  0  0  0  0  0  0  0  0
    0.0000    0.0000    0.0000 O   0  0  0  0  0  0  0  0  0  0  0  0
    0.0000    0.0000    0.0000 N   0  0  0  0  0  0  0  0  0  0  0  0
    0.0000    0.0000    0.0000 C   0  0  0  0  0  0  0  0  0  0  0  0
    0.0000    0.0000    0.0000 C   0  0  0  0  0  0  0  0  0  0  0  0
    0.0000    0.0000    0.0000 C   0  0  0  0  0  0  0  0  0  0  0  0
    0.0000    0.0000    0.0000 C   0  0  0  0  0  0  0  0  0  0  0  0
    0.0000    0.0000    0.0000 C   0  0  0  0  0  0  0  0  0  0  0  0
    0.0000    0.0000    0.0000 N   0  0  0  0  0  0  0  0  0  0  0  0
    0.0000    0.0000    0.0000 C   0  0  0  0  0  0  0  0  0  0  0  0
    0.0000    0.0000    0.0000 C   0  0  0  0  0  0  0  0  0  0  0  0
    0.0000    0.0000    0.0000 C   0  0  0  0  0  0  0  0  0  0  0  0
    0.0000    0.0000    0.0000 C   0  0  0  0  0  0  0  0  0  0  0  0
    0.0000    0.0000    0.0000 O   0  0  0  0  0  0  0  0  0  0  0  0
    0.0000    0.0000    0.0000 C   0  0  0  0  0  0  0  0  0  0  0  0
  1  2  1  0
  2  3  1  0
  3  4  2  0
  4  5  1  0
  5  6  1  0
  6  7  1  0
  7  8  1  0
  8  9  1  0
  5 10  2  0
 10 11  1  0
 11 12  1  0
 12 13  2  0
 12 14  1  0
 14 15  1  0
 15 16  1  0
 16 17  1  0
 17 18  1  0
 18 19  1  0
 19 20  1  0
 20 21  1  0
 21 22  1  0
 22 23  2  0
 11 24  2  0
 24 25  1  0
 25 26  1  0
 24  3  1  0
 20 16  1  0
M  END
>  <pIC50>  (151) 
7.77

>  <ChEMBL_ID>  (151) 
CHEMBL502017

>  <document_journal>  (151) 
Bioorg. Med. Chem. Lett.

>  <bao_endpoint>  (151) 
BAO_0000190

>  <potential_duplicate>  (151) 
False

>  <uo_units>  (151) 
UO_0000065

>  <canonical_smiles>  (151) 
COc1cc(CCCCl)cc(C(=O)NC[C@@H]2CCCN2CC=C)c1OC

>  <parent_molecule_chembl_id>  (151) 
CHEMBL502017

>  <assay_type>  (151) 
F

>  <src_id>  (151) 
1

>  <ligand_efficiency>  (151) 
None

>  <standard_flag>  (151) 
True

>  <molecule_chembl_id>  (151) 
CHEMBL502017

>  <target_organism>  (151) 
Homo sapiens

>  <standard_units>  (151) 
nM

>  <record_id>  (151) 
796061

>  <document_chembl_id>  (151) 
CHEMBL1156607

>  <bao_format>  (151) 
BAO_0000019

>  <data_validity_description>  (151) 
None

>  <activity_id>  (151) 
2227394

>  <standard_type>  (151) 
IC50

>  <target_chembl_id>  (151) 
CHEMBL217

>  <data_validity_comment>  (151) 
None

>  <published_value>  (151) 
17.1

>  <document_year>  (151) 
2008

>  <target_pref_name>  (151) 
Dopamine D2 receptor

>  <assay_chembl_id>  (151) 
CHEMBL1005621

>  <standard_relation>  (151) 
=

>  <assay_description>  (151) 
Antagonist activity at dopamine D2 receptor

>  <published_relation>  (151) 
=

>  <standard_value>  (151) 
17.1

>  <qudt_units>  (151) 
http://www.openphacts.org/units/Nanomolar

>  <target_tax_id>  (151) 
9606

>  <bao_label>  (151) 
assay format

>  <published_units>  (151) 
nM

>  <pchembl_value>  (151) 
7.77

>  <published_type>  (151) 
IC50

>  <activity_comment>  (151) 
None

$$$$

     RDKit          

 29 32  0  0  0  0  0  0  0  0999 V2000
    0.0000    0.0000    0.0000 C   0  0  0  0  0  0  0  0  0  0  0  0
    0.0000    0.0000    0.0000 C   0  0  0  0  0  0  0  0  0  0  0  0
    0.0000    0.0000    0.0000 C   0  0  0  0  0  0  0  0  0  0  0  0
    0.0000    0.0000    0.0000 C   0  0  0  0  0  0  0  0  0  0  0  0
    0.0000    0.0000    0.0000 C   0  0  0  0  0  0  0  0  0  0  0  0
    0.0000    0.0000    0.0000 C   0  0  0  0  0  0  0  0  0  0  0  0
    0.0000    0.0000    0.0000 C   0  0  0  0  0  0  0  0  0  0  0  0
    0.0000    0.0000    0.0000 N   0  0  0  0  0  0  0  0  0  0  0  0
    0.0000    0.0000    0.0000 C   0  0  0  0  0  0  0  0  0  0  0  0
    0.0000    0.0000    0.0000 C   0  0  0  0  0  0  0  0  0  0  0  0
    0.0000    0.0000    0.0000 N   0  0  0  0  0  0  0  0  0  0  0  0
    0.0000    0.0000    0.0000 C   0  0  0  0  0  0  0  0  0  0  0  0
    0.0000    0.0000    0.0000 C   0  0  0  0  0  0  0  0  0  0  0  0
    0.0000    0.0000    0.0000 C   0  0  0  0  0  0  0  0  0  0  0  0
    0.0000    0.0000    0.0000 C   0  0  0  0  0  0  0  0  0  0  0  0
    0.0000    0.0000    0.0000 N   0  0  0  0  0  0  0  0  0  0  0  0
    0.0000    0.0000    0.0000 C   0  0  0  0  0  0  0  0  0  0  0  0
    0.0000    0.0000    0.0000 O   0  0  0  0  0  0  0  0  0  0  0  0
    0.0000    0.0000    0.0000 C   0  0  0  0  0  0  0  0  0  0  0  0
    0.0000    0.0000    0.0000 O   0  0  0  0  0  0  0  0  0  0  0  0
    0.0000    0.0000    0.0000 C   0  0  0  0  0  0  0  0  0  0  0  0
    0.0000    0.0000    0.0000 C   0  0  0  0  0  0  0  0  0  0  0  0
    0.0000    0.0000    0.0000 C   0  0  0  0  0  0  0  0  0  0  0  0
    0.0000    0.0000    0.0000 C   0  0  0  0  0  0  0  0  0  0  0  0
    0.0000    0.0000    0.0000 C   0  0  0  0  0  0  0  0  0  0  0  0
    0.0000    0.0000    0.0000 C   0  0  0  0  0  0  0  0  0  0  0  0
    0.0000    0.0000    0.0000 C   0  0  0  0  0  0  0  0  0  0  0  0
    0.0000    0.0000    0.0000 C   0  0  0  0  0  0  0  0  0  0  0  0
    0.0000    0.0000    0.0000 C   0  0  0  0  0  0  0  0  0  0  0  0
  1  2  1  0
  2  3  2  0
  3  4  1  0
  4  5  2  0
  5  6  1  0
  6  7  2  0
  6  8  1  0
  8  9  1  0
  9 10  1  0
 10 11  1  0
 11 12  1  0
 12 13  1  0
 13 14  1  0
 14 15  1  0
 15 16  1  0
 16 17  1  0
 17 18  2  0
 17 19  1  0
 19 20  1  0
 20 21  1  0
 21 22  2  0
 22 23  1  0
 23 24  2  0
 24 25  1  0
 25 26  2  0
 26 27  1  0
 11 28  1  0
 28 29  1  0
  7  2  1  0
 29  8  1  0
 27 19  2  0
 26 21  1  0
M  END
>  <pIC50>  (152) 
6.07

>  <ChEMBL_ID>  (152) 
CHEMBL496739

>  <document_journal>  (152) 
J. Med. Chem.

>  <bao_endpoint>  (152) 
BAO_0000190

>  <potential_duplicate>  (152) 
False

>  <uo_units>  (152) 
UO_0000065

>  <canonical_smiles>  (152) 
Cc1cccc(c1)N2CCN(CCCCNC(=O)c3oc4ccccc4c3)CC2

>  <parent_molecule_chembl_id>  (152) 
CHEMBL496739

>  <assay_type>  (152) 
F

>  <src_id>  (152) 
1

>  <ligand_efficiency>  (152) 
None

>  <standard_flag>  (152) 
True

>  <molecule_chembl_id>  (152) 
CHEMBL496739

>  <target_organism>  (152) 
Homo sapiens

>  <standard_units>  (152) 
nM

>  <record_id>  (152) 
775853

>  <document_chembl_id>  (152) 
CHEMBL1139353

>  <bao_format>  (152) 
BAO_0000219

>  <data_validity_description>  (152) 
None

>  <activity_id>  (152) 
2248547

>  <standard_type>  (152) 
IC50

>  <target_chembl_id>  (152) 
CHEMBL217

>  <data_validity_comment>  (152) 
None

>  <published_value>  (152) 
584

>  <document_year>  (152) 
2009

>  <target_pref_name>  (152) 
Dopamine D2 receptor

>  <assay_chembl_id>  (152) 
CHEMBL959903

>  <standard_relation>  (152) 
=

>  <assay_description>  (152) 
Antagonist activity at human dopamine D2L receptor expressed in CHO cells by [35S]GTPgammaS binding assay

>  <published_relation>  (152) 
=

>  <standard_value>  (152) 
584

>  <qudt_units>  (152) 
http://www.openphacts.org/units/Nanomolar

>  <target_tax_id>  (152) 
9606

>  <bao_label>  (152) 
cell-based format

>  <published_units>  (152) 
nM

>  <pchembl_value>  (152) 
6.23

>  <published_type>  (152) 
IC50

>  <activity_comment>  (152) 
None

$$$$

     RDKit          

 57 64  0  0  0  0  0  0  0  0999 V2000
    0.0000    0.0000    0.0000 F   0  0  0  0  0  0  0  0  0  0  0  0
    0.0000    0.0000    0.0000 C   0  0  0  0  0  0  0  0  0  0  0  0
    0.0000    0.0000    0.0000 C   0  0  0  0  0  0  0  0  0  0  0  0
    0.0000    0.0000    0.0000 C   0  0  0  0  0  0  0  0  0  0  0  0
    0.0000    0.0000    0.0000 C   0  0  0  0  0  0  0  0  0  0  0  0
    0.0000    0.0000    0.0000 C   0  0  0  0  0  0  0  0  0  0  0  0
    0.0000    0.0000    0.0000 C   0  0  0  0  0  0  0  0  0  0  0  0
    0.0000    0.0000    0.0000 C   0  0  0  0  0  0  0  0  0  0  0  0
    0.0000    0.0000    0.0000 O   0  0  0  0  0  0  0  0  0  0  0  0
    0.0000    0.0000    0.0000 N   0  0  0  0  0  0  0  0  0  0  0  0
    0.0000    0.0000    0.0000 C   0  0  0  0  0  0  0  0  0  0  0  0
    0.0000    0.0000    0.0000 C   0  0  0  0  0  0  0  0  0  0  0  0
    0.0000    0.0000    0.0000 C   0  0  0  0  0  0  0  0  0  0  0  0
    0.0000    0.0000    0.0000 C   0  0  0  0  0  0  0  0  0  0  0  0
    0.0000    0.0000    0.0000 N   0  0  0  0  0  0  0  0  0  0  0  0
    0.0000    0.0000    0.0000 C   0  0  0  0  0  0  0  0  0  0  0  0
    0.0000    0.0000    0.0000 C   0  0  0  0  0  0  0  0  0  0  0  0
    0.0000    0.0000    0.0000 C   0  0  0  0  0  0  0  0  0  0  0  0
    0.0000    0.0000    0.0000 C   0  0  0  0  0  0  0  0  0  0  0  0
    0.0000    0.0000    0.0000 C   0  0  0  0  0  0  0  0  0  0  0  0
    0.0000    0.0000    0.0000 N   0  0  0  0  0  0  0  0  0  0  0  0
    0.0000    0.0000    0.0000 C   0  0  0  0  0  0  0  0  0  0  0  0
    0.0000    0.0000    0.0000 C   0  0  0  0  0  0  0  0  0  0  0  0
    0.0000    0.0000    0.0000 C   0  0  0  0  0  0  0  0  0  0  0  0
    0.0000    0.0000    0.0000 C   0  0  0  0  0  0  0  0  0  0  0  0
    0.0000    0.0000    0.0000 C   0  0  0  0  0  0  0  0  0  0  0  0
    0.0000    0.0000    0.0000 C   0  0  0  0  0  0  0  0  0  0  0  0
    0.0000    0.0000    0.0000 C   0  0  0  0  0  0  0  0  0  0  0  0
    0.0000    0.0000    0.0000 N   0  0  0  0  0  0  0  0  0  0  0  0
    0.0000    0.0000    0.0000 C   0  0  0  0  0  0  0  0  0  0  0  0
    0.0000    0.0000    0.0000 C   0  0  0  0  0  0  0  0  0  0  0  0
    0.0000    0.0000    0.0000 C   0  0  0  0  0  0  0  0  0  0  0  0
    0.0000    0.0000    0.0000 C   0  0  0  0  0  0  0  0  0  0  0  0
    0.0000    0.0000    0.0000 C   0  0  0  0  0  0  0  0  0  0  0  0
    0.0000    0.0000    0.0000 C   0  0  0  0  0  0  0  0  0  0  0  0
    0.0000    0.0000    0.0000 C   0  0  0  0  0  0  0  0  0  0  0  0
    0.0000    0.0000    0.0000 N   0  0  0  0  0  0  0  0  0  0  0  0
    0.0000    0.0000    0.0000 C   0  0  0  0  0  0  0  0  0  0  0  0
    0.0000    0.0000    0.0000 C   0  0  0  0  0  0  0  0  0  0  0  0
    0.0000    0.0000    0.0000 C   0  0  0  0  0  0  0  0  0  0  0  0
    0.0000    0.0000    0.0000 C   0  0  0  0  0  0  0  0  0  0  0  0
    0.0000    0.0000    0.0000 N   0  0  0  0  0  0  0  0  0  0  0  0
    0.0000    0.0000    0.0000 C   0  0  0  0  0  0  0  0  0  0  0  0
    0.0000    0.0000    0.0000 O   0  0  0  0  0  0  0  0  0  0  0  0
    0.0000    0.0000    0.0000 C   0  0  0  0  0  0  0  0  0  0  0  0
    0.0000    0.0000    0.0000 C   0  0  0  0  0  0  0  0  0  0  0  0
    0.0000    0.0000    0.0000 C   0  0  0  0  0  0  0  0  0  0  0  0
    0.0000    0.0000    0.0000 C   0  0  0  0  0  0  0  0  0  0  0  0
    0.0000    0.0000    0.0000 F   0  0  0  0  0  0  0  0  0  0  0  0
    0.0000    0.0000    0.0000 C   0  0  0  0  0  0  0  0  0  0  0  0
    0.0000    0.0000    0.0000 C   0  0  0  0  0  0  0  0  0  0  0  0
    0.0000    0.0000    0.0000 C   0  0  0  0  0  0  0  0  0  0  0  0
    0.0000    0.0000    0.0000 C   0  0  0  0  0  0  0  0  0  0  0  0
    0.0000    0.0000    0.0000 C   0  0  0  0  0  0  0  0  0  0  0  0
    0.0000    0.0000    0.0000 C   0  0  0  0  0  0  0  0  0  0  0  0
    0.0000    0.0000    0.0000 C   0  0  0  0  0  0  0  0  0  0  0  0
    0.0000    0.0000    0.0000 C   0  0  0  0  0  0  0  0  0  0  0  0
  1  2  1  0
  2  3  2  0
  3  4  1  0
  4  5  2  0
  5  6  1  0
  6  7  2  0
  5  8  1  0
  8  9  2  0
  8 10  1  0
 10 11  1  0
 11 12  2  0
 12 13  1  0
 13 14  2  0
 14 15  1  0
 15 16  1  0
 16 17  2  0
 17 18  1  0
 18 19  1  0
 19 20  1  0
 20 21  1  0
 21 22  1  0
 22 23  1  0
 23 24  1  0
 24 25  1  0
 25 26  1  0
 26 27  1  0
 27 28  1  0
 28 29  1  0
 29 30  1  0
 30 31  1  0
 31 32  1  0
 32 33  1  0
 33 34  1  0
 32 35  1  0
 35 36  2  0
 36 37  1  0
 37 38  1  0
 38 39  2  0
 39 40  1  0
 40 41  2  0
 41 42  1  0
 42 43  1  0
 43 44  2  0
 43 45  1  0
 45 46  2  0
 46 47  1  0
 47 48  2  0
 48 49  1  0
 48 50  1  0
 50 51  2  0
 41 52  1  0
 52 53  2  0
 21 54  1  0
 54 55  1  0
 17 56  1  0
 56 57  2  0
  7  2  1  0
 57 11  1  0
 56 14  1  0
 55 18  1  0
 34 29  1  0
 53 35  1  0
 53 38  1  0
 51 45  1  0
M  END
>  <pIC50>  (153) 
6.16

>  <ChEMBL_ID>  (153) 
CHEMBL503468

>  <document_journal>  (153) 
J. Med. Chem.

>  <bao_endpoint>  (153) 
BAO_0000190

>  <potential_duplicate>  (153) 
False

>  <uo_units>  (153) 
UO_0000065

>  <canonical_smiles>  (153) 
Fc1ccc(cc1)C(=O)Nc2ccc3[nH]cc(C4CCN(CCCCCCCN5CCC(CC5)c6c[nH]c7ccc(NC(=O)c8ccc(F)cc8)cc67)CC4)c3c2

>  <parent_molecule_chembl_id>  (153) 
CHEMBL503468

>  <assay_type>  (153) 
B

>  <src_id>  (153) 
1

>  <ligand_efficiency>  (153) 
{u'le': u'0.15', u'bei': u'7.98', u'sei': u'6.39', u'lle': u'-3.29'}

>  <standard_flag>  (153) 
True

>  <molecule_chembl_id>  (153) 
CHEMBL503468

>  <target_organism>  (153) 
Homo sapiens

>  <standard_units>  (153) 
nM

>  <record_id>  (153) 
793781

>  <document_chembl_id>  (153) 
CHEMBL1150432

>  <bao_format>  (153) 
BAO_0000357

>  <data_validity_description>  (153) 
None

>  <activity_id>  (153) 
2348168

>  <standard_type>  (153) 
IC50

>  <target_chembl_id>  (153) 
CHEMBL217

>  <data_validity_comment>  (153) 
None

>  <published_value>  (153) 
0.7

>  <document_year>  (153) 
2008

>  <target_pref_name>  (153) 
Dopamine D2 receptor

>  <assay_chembl_id>  (153) 
CHEMBL965249

>  <standard_relation>  (153) 
=

>  <assay_description>  (153) 
Binding affinity to human dopamine D2 receptor

>  <published_relation>  (153) 
=

>  <standard_value>  (153) 
700

>  <qudt_units>  (153) 
http://www.openphacts.org/units/Nanomolar

>  <target_tax_id>  (153) 
9606

>  <bao_label>  (153) 
single protein format

>  <published_units>  (153) 
uM

>  <pchembl_value>  (153) 
6.16

>  <published_type>  (153) 
IC50

>  <activity_comment>  (153) 
None

$$$$

     RDKit          

 26 30  0  0  0  0  0  0  0  0999 V2000
    0.0000    0.0000    0.0000 O   0  0  0  0  0  0  0  0  0  0  0  0
    0.0000    0.0000    0.0000 C   0  0  0  0  0  0  0  0  0  0  0  0
    0.0000    0.0000    0.0000 C   0  0  0  0  0  0  0  0  0  0  0  0
    0.0000    0.0000    0.0000 C   0  0  0  0  0  0  0  0  0  0  0  0
    0.0000    0.0000    0.0000 C   0  0  0  0  0  0  0  0  0  0  0  0
    0.0000    0.0000    0.0000 C   0  0  0  0  0  0  0  0  0  0  0  0
    0.0000    0.0000    0.0000 C   0  0  0  0  0  0  0  0  0  0  0  0
    0.0000    0.0000    0.0000 C   0  0  0  0  0  0  0  0  0  0  0  0
    0.0000    0.0000    0.0000 N   0  0  0  0  0  0  0  0  0  0  0  0
    0.0000    0.0000    0.0000 C   0  0  0  0  0  0  0  0  0  0  0  0
    0.0000    0.0000    0.0000 C   0  0  0  0  0  0  0  0  0  0  0  0
    0.0000    0.0000    0.0000 C   0  0  0  0  0  0  0  0  0  0  0  0
    0.0000    0.0000    0.0000 N   0  0  0  0  0  0  0  0  0  0  0  0
    0.0000    0.0000    0.0000 C   0  0  0  0  0  0  0  0  0  0  0  0
    0.0000    0.0000    0.0000 C   0  0  0  0  0  0  0  0  0  0  0  0
    0.0000    0.0000    0.0000 C   0  0  0  0  0  0  0  0  0  0  0  0
    0.0000    0.0000    0.0000 C   0  0  0  0  0  0  0  0  0  0  0  0
    0.0000    0.0000    0.0000 C   0  0  0  0  0  0  0  0  0  0  0  0
    0.0000    0.0000    0.0000 C   0  0  0  0  0  0  0  0  0  0  0  0
    0.0000    0.0000    0.0000 C   0  0  0  0  0  0  0  0  0  0  0  0
    0.0000    0.0000    0.0000 C   0  0  0  0  0  0  0  0  0  0  0  0
    0.0000    0.0000    0.0000 C   0  0  0  0  0  0  0  0  0  0  0  0
    0.0000    0.0000    0.0000 C   0  0  0  0  0  0  0  0  0  0  0  0
    0.0000    0.0000    0.0000 Cl  0  0  0  0  0  0  0  0  0  0  0  0
    0.0000    0.0000    0.0000 C   0  0  0  0  0  0  0  0  0  0  0  0
    0.0000    0.0000    0.0000 C   0  0  0  0  0  0  0  0  0  0  0  0
  1  2  1  0
  2  3  1  0
  3  4  1  0
  4  5  1  0
  5  6  1  0
  6  7  1  0
  7  8  1  0
  7  9  1  0
  9 10  1  0
 10 11  1  0
 11 12  2  0
 12 13  1  0
 13 14  1  0
 14 15  2  0
 15 16  1  0
 16 17  2  0
 17 18  1  0
 18 19  2  0
  2 20  1  0
 20 21  2  0
 21 22  1  0
 22 23  2  0
 23 24  1  0
 23 25  1  0
 25 26  2  0
  8  2  1  0
  9  4  1  0
 19 11  1  0
 19 14  1  0
 26 20  1  0
M  END
>  <pIC50>  (154) 
7.32

>  <ChEMBL_ID>  (154) 
CHEMBL3084502

>  <document_journal>  (154) 
J. Med. Chem.

>  <bao_endpoint>  (154) 
BAO_0000190

>  <potential_duplicate>  (154) 
False

>  <uo_units>  (154) 
UO_0000065

>  <canonical_smiles>  (154) 
O[C@@]1(C[C@H]2CC[C@@H](C1)N2Cc3c[nH]c4ccccc34)c5ccc(Cl)cc5

>  <parent_molecule_chembl_id>  (154) 
CHEMBL3084502

>  <assay_type>  (154) 
F

>  <src_id>  (154) 
1

>  <ligand_efficiency>  (154) 
None

>  <standard_flag>  (154) 
True

>  <molecule_chembl_id>  (154) 
CHEMBL3084502

>  <target_organism>  (154) 
Homo sapiens

>  <standard_units>  (154) 
nM

>  <record_id>  (154) 
747141

>  <document_chembl_id>  (154) 
CHEMBL1140093

>  <bao_format>  (154) 
BAO_0000019

>  <data_validity_description>  (154) 
None

>  <activity_id>  (154) 
2362396

>  <standard_type>  (154) 
IC50

>  <target_chembl_id>  (154) 
CHEMBL217

>  <data_validity_comment>  (154) 
None

>  <published_value>  (154) 
48.3

>  <document_year>  (154) 
2008

>  <target_pref_name>  (154) 
Dopamine D2 receptor

>  <assay_chembl_id>  (154) 
CHEMBL1033065

>  <standard_relation>  (154) 
=

>  <assay_description>  (154) 
Antagonist activity at dopamine D2 receptor

>  <published_relation>  (154) 
=

>  <standard_value>  (154) 
48.3

>  <qudt_units>  (154) 
http://www.openphacts.org/units/Nanomolar

>  <target_tax_id>  (154) 
9606

>  <bao_label>  (154) 
assay format

>  <published_units>  (154) 
nM

>  <pchembl_value>  (154) 
7.32

>  <published_type>  (154) 
IC50

>  <activity_comment>  (154) 
None

$$$$

     RDKit          

 24 27  0  0  0  0  0  0  0  0999 V2000
    0.0000    0.0000    0.0000 O   0  0  0  0  0  0  0  0  0  0  0  0
    0.0000    0.0000    0.0000 C   0  0  0  0  0  0  0  0  0  0  0  0
    0.0000    0.0000    0.0000 C   0  0  0  0  0  0  0  0  0  0  0  0
    0.0000    0.0000    0.0000 C   0  0  0  0  0  0  0  0  0  0  0  0
    0.0000    0.0000    0.0000 N   0  0  0  0  0  0  0  0  0  0  0  0
    0.0000    0.0000    0.0000 C   0  0  0  0  0  0  0  0  0  0  0  0
    0.0000    0.0000    0.0000 C   0  0  0  0  0  0  0  0  0  0  0  0
    0.0000    0.0000    0.0000 C   0  0  0  0  0  0  0  0  0  0  0  0
    0.0000    0.0000    0.0000 N   0  0  0  0  0  0  0  0  0  0  0  0
    0.0000    0.0000    0.0000 C   0  0  0  0  0  0  0  0  0  0  0  0
    0.0000    0.0000    0.0000 C   0  0  0  0  0  0  0  0  0  0  0  0
    0.0000    0.0000    0.0000 C   0  0  0  0  0  0  0  0  0  0  0  0
    0.0000    0.0000    0.0000 C   0  0  0  0  0  0  0  0  0  0  0  0
    0.0000    0.0000    0.0000 C   0  0  0  0  0  0  0  0  0  0  0  0
    0.0000    0.0000    0.0000 C   0  0  0  0  0  0  0  0  0  0  0  0
    0.0000    0.0000    0.0000 C   0  0  0  0  0  0  0  0  0  0  0  0
    0.0000    0.0000    0.0000 C   0  0  0  0  0  0  0  0  0  0  0  0
    0.0000    0.0000    0.0000 C   0  0  0  0  0  0  0  0  0  0  0  0
    0.0000    0.0000    0.0000 C   0  0  0  0  0  0  0  0  0  0  0  0
    0.0000    0.0000    0.0000 C   0  0  0  0  0  0  0  0  0  0  0  0
    0.0000    0.0000    0.0000 C   0  0  0  0  0  0  0  0  0  0  0  0
    0.0000    0.0000    0.0000 Cl  0  0  0  0  0  0  0  0  0  0  0  0
    0.0000    0.0000    0.0000 C   0  0  0  0  0  0  0  0  0  0  0  0
    0.0000    0.0000    0.0000 C   0  0  0  0  0  0  0  0  0  0  0  0
  1  2  1  0
  2  3  1  0
  3  4  1  0
  4  5  1  0
  5  6  1  0
  6  7  1  0
  7  8  2  0
  8  9  1  0
  9 10  1  0
 10 11  2  0
 11 12  1  0
 12 13  2  0
 13 14  1  0
 14 15  2  0
  5 16  1  0
 16 17  1  0
  2 18  1  0
 18 19  2  0
 19 20  1  0
 20 21  2  0
 21 22  1  0
 21 23  1  0
 23 24  2  0
 17  2  1  0
 15  7  1  0
 15 10  1  0
 24 18  1  0
M  END
>  <pIC50>  (155) 
8.35

>  <ChEMBL_ID>  (155) 
CHEMBL445102

>  <document_journal>  (155) 
J. Med. Chem.

>  <bao_endpoint>  (155) 
BAO_0000190

>  <potential_duplicate>  (155) 
False

>  <uo_units>  (155) 
UO_0000065

>  <canonical_smiles>  (155) 
OC1(CCN(Cc2c[nH]c3ccccc23)CC1)c4ccc(Cl)cc4

>  <parent_molecule_chembl_id>  (155) 
CHEMBL445102

>  <assay_type>  (155) 
F

>  <src_id>  (155) 
1

>  <ligand_efficiency>  (155) 
None

>  <standard_flag>  (155) 
True

>  <molecule_chembl_id>  (155) 
CHEMBL445102

>  <target_organism>  (155) 
Homo sapiens

>  <standard_units>  (155) 
nM

>  <record_id>  (155) 
747462

>  <document_chembl_id>  (155) 
CHEMBL1140093

>  <bao_format>  (155) 
BAO_0000019

>  <data_validity_description>  (155) 
None

>  <activity_id>  (155) 
2362401

>  <standard_type>  (155) 
IC50

>  <target_chembl_id>  (155) 
CHEMBL217

>  <data_validity_comment>  (155) 
None

>  <published_value>  (155) 
4.46

>  <document_year>  (155) 
2008

>  <target_pref_name>  (155) 
Dopamine D2 receptor

>  <assay_chembl_id>  (155) 
CHEMBL1033065

>  <standard_relation>  (155) 
=

>  <assay_description>  (155) 
Antagonist activity at dopamine D2 receptor

>  <published_relation>  (155) 
=

>  <standard_value>  (155) 
4.46

>  <qudt_units>  (155) 
http://www.openphacts.org/units/Nanomolar

>  <target_tax_id>  (155) 
9606

>  <bao_label>  (155) 
assay format

>  <published_units>  (155) 
nM

>  <pchembl_value>  (155) 
8.35

>  <published_type>  (155) 
IC50

>  <activity_comment>  (155) 
None

$$$$

     RDKit          

 26 30  0  0  0  0  0  0  0  0999 V2000
    0.0000    0.0000    0.0000 O   0  0  0  0  0  0  0  0  0  0  0  0
    0.0000    0.0000    0.0000 C   0  0  0  0  0  0  0  0  0  0  0  0
    0.0000    0.0000    0.0000 C   0  0  0  0  0  0  0  0  0  0  0  0
    0.0000    0.0000    0.0000 C   0  0  0  0  0  0  0  0  0  0  0  0
    0.0000    0.0000    0.0000 C   0  0  0  0  0  0  0  0  0  0  0  0
    0.0000    0.0000    0.0000 C   0  0  0  0  0  0  0  0  0  0  0  0
    0.0000    0.0000    0.0000 C   0  0  0  0  0  0  0  0  0  0  0  0
    0.0000    0.0000    0.0000 C   0  0  0  0  0  0  0  0  0  0  0  0
    0.0000    0.0000    0.0000 N   0  0  0  0  0  0  0  0  0  0  0  0
    0.0000    0.0000    0.0000 C   0  0  0  0  0  0  0  0  0  0  0  0
    0.0000    0.0000    0.0000 C   0  0  0  0  0  0  0  0  0  0  0  0
    0.0000    0.0000    0.0000 C   0  0  0  0  0  0  0  0  0  0  0  0
    0.0000    0.0000    0.0000 O   0  0  0  0  0  0  0  0  0  0  0  0
    0.0000    0.0000    0.0000 C   0  0  0  0  0  0  0  0  0  0  0  0
    0.0000    0.0000    0.0000 C   0  0  0  0  0  0  0  0  0  0  0  0
    0.0000    0.0000    0.0000 C   0  0  0  0  0  0  0  0  0  0  0  0
    0.0000    0.0000    0.0000 C   0  0  0  0  0  0  0  0  0  0  0  0
    0.0000    0.0000    0.0000 C   0  0  0  0  0  0  0  0  0  0  0  0
    0.0000    0.0000    0.0000 C   0  0  0  0  0  0  0  0  0  0  0  0
    0.0000    0.0000    0.0000 C   0  0  0  0  0  0  0  0  0  0  0  0
    0.0000    0.0000    0.0000 C   0  0  0  0  0  0  0  0  0  0  0  0
    0.0000    0.0000    0.0000 C   0  0  0  0  0  0  0  0  0  0  0  0
    0.0000    0.0000    0.0000 C   0  0  0  0  0  0  0  0  0  0  0  0
    0.0000    0.0000    0.0000 Cl  0  0  0  0  0  0  0  0  0  0  0  0
    0.0000    0.0000    0.0000 C   0  0  0  0  0  0  0  0  0  0  0  0
    0.0000    0.0000    0.0000 C   0  0  0  0  0  0  0  0  0  0  0  0
  1  2  1  0
  2  3  1  0
  3  4  1  0
  4  5  1  0
  5  6  1  0
  6  7  1  0
  7  8  1  0
  7  9  1  0
  9 10  1  0
 10 11  1  0
 11 12  2  0
 12 13  1  0
 13 14  1  0
 14 15  2  0
 15 16  1  0
 16 17  2  0
 17 18  1  0
 18 19  2  0
  2 20  1  0
 20 21  2  0
 21 22  1  0
 22 23  2  0
 23 24  1  0
 23 25  1  0
 25 26  2  0
  8  2  1  0
  9  4  1  0
 19 11  1  0
 19 14  1  0
 26 20  1  0
M  END
>  <pIC50>  (156) 
8.72

>  <ChEMBL_ID>  (156) 
CHEMBL3084515

>  <document_journal>  (156) 
J. Med. Chem.

>  <bao_endpoint>  (156) 
BAO_0000190

>  <potential_duplicate>  (156) 
False

>  <uo_units>  (156) 
UO_0000065

>  <canonical_smiles>  (156) 
O[C@]1(C[C@H]2CC[C@@H](C1)N2Cc3coc4ccccc34)c5ccc(Cl)cc5

>  <parent_molecule_chembl_id>  (156) 
CHEMBL3084515

>  <assay_type>  (156) 
F

>  <src_id>  (156) 
1

>  <ligand_efficiency>  (156) 
None

>  <standard_flag>  (156) 
True

>  <molecule_chembl_id>  (156) 
CHEMBL3084515

>  <target_organism>  (156) 
Homo sapiens

>  <standard_units>  (156) 
nM

>  <record_id>  (156) 
747302

>  <document_chembl_id>  (156) 
CHEMBL1140093

>  <bao_format>  (156) 
BAO_0000019

>  <data_validity_description>  (156) 
None

>  <activity_id>  (156) 
2362402

>  <standard_type>  (156) 
IC50

>  <target_chembl_id>  (156) 
CHEMBL217

>  <data_validity_comment>  (156) 
None

>  <published_value>  (156) 
1.92

>  <document_year>  (156) 
2008

>  <target_pref_name>  (156) 
Dopamine D2 receptor

>  <assay_chembl_id>  (156) 
CHEMBL1033065

>  <standard_relation>  (156) 
=

>  <assay_description>  (156) 
Antagonist activity at dopamine D2 receptor

>  <published_relation>  (156) 
=

>  <standard_value>  (156) 
1.92

>  <qudt_units>  (156) 
http://www.openphacts.org/units/Nanomolar

>  <target_tax_id>  (156) 
9606

>  <bao_label>  (156) 
assay format

>  <published_units>  (156) 
nM

>  <pchembl_value>  (156) 
8.72

>  <published_type>  (156) 
IC50

>  <activity_comment>  (156) 
None

$$$$

     RDKit          

 26 30  0  0  0  0  0  0  0  0999 V2000
    0.0000    0.0000    0.0000 O   0  0  0  0  0  0  0  0  0  0  0  0
    0.0000    0.0000    0.0000 C   0  0  0  0  0  0  0  0  0  0  0  0
    0.0000    0.0000    0.0000 C   0  0  0  0  0  0  0  0  0  0  0  0
    0.0000    0.0000    0.0000 C   0  0  0  0  0  0  0  0  0  0  0  0
    0.0000    0.0000    0.0000 C   0  0  0  0  0  0  0  0  0  0  0  0
    0.0000    0.0000    0.0000 C   0  0  0  0  0  0  0  0  0  0  0  0
    0.0000    0.0000    0.0000 C   0  0  0  0  0  0  0  0  0  0  0  0
    0.0000    0.0000    0.0000 C   0  0  0  0  0  0  0  0  0  0  0  0
    0.0000    0.0000    0.0000 N   0  0  0  0  0  0  0  0  0  0  0  0
    0.0000    0.0000    0.0000 C   0  0  0  0  0  0  0  0  0  0  0  0
    0.0000    0.0000    0.0000 C   0  0  0  0  0  0  0  0  0  0  0  0
    0.0000    0.0000    0.0000 C   0  0  0  0  0  0  0  0  0  0  0  0
    0.0000    0.0000    0.0000 S   0  0  0  0  0  0  0  0  0  0  0  0
    0.0000    0.0000    0.0000 C   0  0  0  0  0  0  0  0  0  0  0  0
    0.0000    0.0000    0.0000 C   0  0  0  0  0  0  0  0  0  0  0  0
    0.0000    0.0000    0.0000 C   0  0  0  0  0  0  0  0  0  0  0  0
    0.0000    0.0000    0.0000 C   0  0  0  0  0  0  0  0  0  0  0  0
    0.0000    0.0000    0.0000 C   0  0  0  0  0  0  0  0  0  0  0  0
    0.0000    0.0000    0.0000 C   0  0  0  0  0  0  0  0  0  0  0  0
    0.0000    0.0000    0.0000 C   0  0  0  0  0  0  0  0  0  0  0  0
    0.0000    0.0000    0.0000 C   0  0  0  0  0  0  0  0  0  0  0  0
    0.0000    0.0000    0.0000 C   0  0  0  0  0  0  0  0  0  0  0  0
    0.0000    0.0000    0.0000 C   0  0  0  0  0  0  0  0  0  0  0  0
    0.0000    0.0000    0.0000 Cl  0  0  0  0  0  0  0  0  0  0  0  0
    0.0000    0.0000    0.0000 C   0  0  0  0  0  0  0  0  0  0  0  0
    0.0000    0.0000    0.0000 C   0  0  0  0  0  0  0  0  0  0  0  0
  1  2  1  0
  2  3  1  0
  3  4  1  0
  4  5  1  0
  5  6  1  0
  6  7  1  0
  7  8  1  0
  7  9  1  0
  9 10  1  0
 10 11  1  0
 11 12  2  0
 12 13  1  0
 13 14  1  0
 14 15  2  0
 15 16  1  0
 16 17  2  0
 17 18  1  0
 18 19  2  0
  2 20  1  0
 20 21  2  0
 21 22  1  0
 22 23  2  0
 23 24  1  0
 23 25  1  0
 25 26  2  0
  8  2  1  0
  9  4  1  0
 19 11  1  0
 19 14  1  0
 26 20  1  0
M  END
>  <pIC50>  (157) 
7.58

>  <ChEMBL_ID>  (157) 
CHEMBL3084512

>  <document_journal>  (157) 
J. Med. Chem.

>  <bao_endpoint>  (157) 
BAO_0000190

>  <potential_duplicate>  (157) 
False

>  <uo_units>  (157) 
UO_0000065

>  <canonical_smiles>  (157) 
O[C@]1(C[C@H]2CC[C@@H](C1)N2Cc3csc4ccccc34)c5ccc(Cl)cc5

>  <parent_molecule_chembl_id>  (157) 
CHEMBL3084512

>  <assay_type>  (157) 
F

>  <src_id>  (157) 
1

>  <ligand_efficiency>  (157) 
None

>  <standard_flag>  (157) 
True

>  <molecule_chembl_id>  (157) 
CHEMBL3084512

>  <target_organism>  (157) 
Homo sapiens

>  <standard_units>  (157) 
nM

>  <record_id>  (157) 
747299

>  <document_chembl_id>  (157) 
CHEMBL1140093

>  <bao_format>  (157) 
BAO_0000019

>  <data_validity_description>  (157) 
None

>  <activity_id>  (157) 
2362403

>  <standard_type>  (157) 
IC50

>  <target_chembl_id>  (157) 
CHEMBL217

>  <data_validity_comment>  (157) 
None

>  <published_value>  (157) 
26.2

>  <document_year>  (157) 
2008

>  <target_pref_name>  (157) 
Dopamine D2 receptor

>  <assay_chembl_id>  (157) 
CHEMBL1033065

>  <standard_relation>  (157) 
=

>  <assay_description>  (157) 
Antagonist activity at dopamine D2 receptor

>  <published_relation>  (157) 
=

>  <standard_value>  (157) 
26.2

>  <qudt_units>  (157) 
http://www.openphacts.org/units/Nanomolar

>  <target_tax_id>  (157) 
9606

>  <bao_label>  (157) 
assay format

>  <published_units>  (157) 
nM

>  <pchembl_value>  (157) 
7.58

>  <published_type>  (157) 
IC50

>  <activity_comment>  (157) 
None

$$$$

     RDKit          

 27 31  0  0  0  0  0  0  0  0999 V2000
    0.0000    0.0000    0.0000 O   0  0  0  0  0  0  0  0  0  0  0  0
    0.0000    0.0000    0.0000 C   0  0  0  0  0  0  0  0  0  0  0  0
    0.0000    0.0000    0.0000 C   0  0  0  0  0  0  0  0  0  0  0  0
    0.0000    0.0000    0.0000 C   0  0  0  0  0  0  0  0  0  0  0  0
    0.0000    0.0000    0.0000 C   0  0  0  0  0  0  0  0  0  0  0  0
    0.0000    0.0000    0.0000 C   0  0  0  0  0  0  0  0  0  0  0  0
    0.0000    0.0000    0.0000 C   0  0  0  0  0  0  0  0  0  0  0  0
    0.0000    0.0000    0.0000 C   0  0  0  0  0  0  0  0  0  0  0  0
    0.0000    0.0000    0.0000 N   0  0  0  0  0  0  0  0  0  0  0  0
    0.0000    0.0000    0.0000 C   0  0  0  0  0  0  0  0  0  0  0  0
    0.0000    0.0000    0.0000 C   0  0  0  0  0  0  0  0  0  0  0  0
    0.0000    0.0000    0.0000 C   0  0  0  0  0  0  0  0  0  0  0  0
    0.0000    0.0000    0.0000 N   0  0  0  0  0  0  0  0  0  0  0  0
    0.0000    0.0000    0.0000 C   0  0  0  0  0  0  0  0  0  0  0  0
    0.0000    0.0000    0.0000 C   0  0  0  0  0  0  0  0  0  0  0  0
    0.0000    0.0000    0.0000 C   0  0  0  0  0  0  0  0  0  0  0  0
    0.0000    0.0000    0.0000 C   0  0  0  0  0  0  0  0  0  0  0  0
    0.0000    0.0000    0.0000 C   0  0  0  0  0  0  0  0  0  0  0  0
    0.0000    0.0000    0.0000 C   0  0  0  0  0  0  0  0  0  0  0  0
    0.0000    0.0000    0.0000 C   0  0  0  0  0  0  0  0  0  0  0  0
    0.0000    0.0000    0.0000 C   0  0  0  0  0  0  0  0  0  0  0  0
    0.0000    0.0000    0.0000 C   0  0  0  0  0  0  0  0  0  0  0  0
    0.0000    0.0000    0.0000 C   0  0  0  0  0  0  0  0  0  0  0  0
    0.0000    0.0000    0.0000 Cl  0  0  0  0  0  0  0  0  0  0  0  0
    0.0000    0.0000    0.0000 C   0  0  0  0  0  0  0  0  0  0  0  0
    0.0000    0.0000    0.0000 Cl  0  0  0  0  0  0  0  0  0  0  0  0
    0.0000    0.0000    0.0000 C   0  0  0  0  0  0  0  0  0  0  0  0
  1  2  1  0
  2  3  1  0
  3  4  1  0
  4  5  1  0
  5  6  1  0
  6  7  1  0
  7  8  1  0
  7  9  1  0
  9 10  1  0
 10 11  1  0
 11 12  2  0
 12 13  1  0
 13 14  1  0
 14 15  2  0
 15 16  1  0
 16 17  2  0
 17 18  1  0
 18 19  2  0
  2 20  1  0
 20 21  2  0
 21 22  1  0
 22 23  2  0
 23 24  1  0
 23 25  1  0
 25 26  1  0
 25 27  2  0
  8  2  1  0
  9  4  1  0
 19 11  1  0
 19 14  1  0
 27 20  1  0
M  END
>  <pIC50>  (158) 
6.68

>  <ChEMBL_ID>  (158) 
CHEMBL3084503

>  <document_journal>  (158) 
J. Med. Chem.

>  <bao_endpoint>  (158) 
BAO_0000190

>  <potential_duplicate>  (158) 
False

>  <uo_units>  (158) 
UO_0000065

>  <canonical_smiles>  (158) 
O[C@]1(C[C@H]2CC[C@@H](C1)N2Cc3c[nH]c4ccccc34)c5ccc(Cl)c(Cl)c5

>  <parent_molecule_chembl_id>  (158) 
CHEMBL3084503

>  <assay_type>  (158) 
F

>  <src_id>  (158) 
1

>  <ligand_efficiency>  (158) 
None

>  <standard_flag>  (158) 
True

>  <molecule_chembl_id>  (158) 
CHEMBL3084503

>  <target_organism>  (158) 
Homo sapiens

>  <standard_units>  (158) 
nM

>  <record_id>  (158) 
747142

>  <document_chembl_id>  (158) 
CHEMBL1140093

>  <bao_format>  (158) 
BAO_0000019

>  <data_validity_description>  (158) 
None

>  <activity_id>  (158) 
2362404

>  <standard_type>  (158) 
IC50

>  <target_chembl_id>  (158) 
CHEMBL217

>  <data_validity_comment>  (158) 
None

>  <published_value>  (158) 
210

>  <document_year>  (158) 
2008

>  <target_pref_name>  (158) 
Dopamine D2 receptor

>  <assay_chembl_id>  (158) 
CHEMBL1033065

>  <standard_relation>  (158) 
=

>  <assay_description>  (158) 
Antagonist activity at dopamine D2 receptor

>  <published_relation>  (158) 
=

>  <standard_value>  (158) 
210

>  <qudt_units>  (158) 
http://www.openphacts.org/units/Nanomolar

>  <target_tax_id>  (158) 
9606

>  <bao_label>  (158) 
assay format

>  <published_units>  (158) 
nM

>  <pchembl_value>  (158) 
6.68

>  <published_type>  (158) 
IC50

>  <activity_comment>  (158) 
None

$$$$

     RDKit          

 37 40  0  0  0  0  0  0  0  0999 V2000
    0.0000    0.0000    0.0000 C   0  0  0  0  0  0  0  0  0  0  0  0
    0.0000    0.0000    0.0000 C   0  0  0  0  0  0  0  0  0  0  0  0
    0.0000    0.0000    0.0000 O   0  0  0  0  0  0  0  0  0  0  0  0
    0.0000    0.0000    0.0000 C   0  0  0  0  0  0  0  0  0  0  0  0
    0.0000    0.0000    0.0000 C   0  0  0  0  0  0  0  0  0  0  0  0
    0.0000    0.0000    0.0000 C   0  0  0  0  0  0  0  0  0  0  0  0
    0.0000    0.0000    0.0000 C   0  0  0  0  0  0  0  0  0  0  0  0
    0.0000    0.0000    0.0000 C   0  0  0  0  0  0  0  0  0  0  0  0
    0.0000    0.0000    0.0000 C   0  0  0  0  0  0  0  0  0  0  0  0
    0.0000    0.0000    0.0000 N   0  0  0  0  0  0  0  0  0  0  0  0
    0.0000    0.0000    0.0000 C   0  0  0  0  0  0  0  0  0  0  0  0
    0.0000    0.0000    0.0000 C   0  0  0  0  0  0  0  0  0  0  0  0
    0.0000    0.0000    0.0000 C   0  0  0  0  0  0  0  0  0  0  0  0
    0.0000    0.0000    0.0000 C   0  0  0  0  0  0  0  0  0  0  0  0
    0.0000    0.0000    0.0000 O   0  0  0  0  0  0  0  0  0  0  0  0
    0.0000    0.0000    0.0000 C   0  0  0  0  0  0  0  0  0  0  0  0
    0.0000    0.0000    0.0000 C   0  0  0  0  0  0  0  0  0  0  0  0
    0.0000    0.0000    0.0000 C   0  0  0  0  0  0  0  0  0  0  0  0
    0.0000    0.0000    0.0000 C   0  0  0  0  0  0  0  0  0  0  0  0
    0.0000    0.0000    0.0000 Cl  0  0  0  0  0  0  0  0  0  0  0  0
    0.0000    0.0000    0.0000 C   0  0  0  0  0  0  0  0  0  0  0  0
    0.0000    0.0000    0.0000 C   0  0  0  0  0  0  0  0  0  0  0  0
    0.0000    0.0000    0.0000 C   0  0  0  0  0  0  0  0  0  0  0  0
    0.0000    0.0000    0.0000 C   0  0  0  0  0  0  0  0  0  0  0  0
    0.0000    0.0000    0.0000 C   0  0  0  0  0  0  0  0  0  0  0  0
    0.0000    0.0000    0.0000 C   0  0  0  0  0  0  0  0  0  0  0  0
    0.0000    0.0000    0.0000 O   0  0  0  0  0  0  0  0  0  0  0  0
    0.0000    0.0000    0.0000 C   0  0  0  0  0  0  0  0  0  0  0  0
    0.0000    0.0000    0.0000 F   0  0  0  0  0  0  0  0  0  0  0  0
    0.0000    0.0000    0.0000 F   0  0  0  0  0  0  0  0  0  0  0  0
    0.0000    0.0000    0.0000 F   0  0  0  0  0  0  0  0  0  0  0  0
    0.0000    0.0000    0.0000 C   0  0  0  0  0  0  0  0  0  0  0  0
    0.0000    0.0000    0.0000 C   0  0  0  0  0  0  0  0  0  0  0  0
    0.0000    0.0000    0.0000 C   0  0  0  0  0  0  0  0  0  0  0  0
    0.0000    0.0000    0.0000 C   0  0  0  0  0  0  0  0  0  0  0  0
    0.0000    0.0000    0.0000 O   0  0  0  0  0  0  0  0  0  0  0  0
    0.0000    0.0000    0.0000 O   0  0  0  0  0  0  0  0  0  0  0  0
  1  2  1  0
  2  3  1  0
  3  4  1  0
  4  5  2  0
  5  6  1  0
  6  7  2  0
  7  8  1  0
  8  9  1  0
  9 10  1  0
 10 11  1  0
 11 12  1  0
 11 13  2  0
 13 14  1  0
 14 15  2  0
 14 16  1  0
 16 17  2  0
 17 18  1  0
 18 19  2  0
 19 20  1  0
 19 21  1  0
 21 22  2  0
 13 23  1  0
 23 24  2  0
 24 25  1  0
 25 26  2  0
 26 27  1  0
 27 28  1  0
 28 29  1  0
 28 30  1  0
 28 31  1  0
 26 32  1  0
 32 33  2  0
  8 34  2  0
  2 35  1  0
 35 36  2  0
 35 37  1  0
 34  4  1  0
 33 10  1  0
 22 16  1  0
 33 23  1  0
M  END
>  <pIC50>  (159) 
5.45

>  <ChEMBL_ID>  (159) 
CHEMBL461571

>  <document_journal>  (159) 
Bioorg. Med. Chem. Lett.

>  <bao_endpoint>  (159) 
BAO_0000190

>  <potential_duplicate>  (159) 
False

>  <uo_units>  (159) 
UO_0000065

>  <canonical_smiles>  (159) 
C[C@@H](Oc1cccc(Cn2c(C)c(C(=O)c3ccc(Cl)cc3)c4ccc(OC(F)(F)F)cc24)c1)C(=O)O

>  <parent_molecule_chembl_id>  (159) 
CHEMBL461571

>  <assay_type>  (159) 
B

>  <src_id>  (159) 
1

>  <ligand_efficiency>  (159) 
{u'le': u'0.2', u'bei': u'10.25', u'sei': u'7.01', u'lle': u'-2.75'}

>  <standard_flag>  (159) 
True

>  <molecule_chembl_id>  (159) 
CHEMBL461571

>  <target_organism>  (159) 
Homo sapiens

>  <standard_units>  (159) 
nM

>  <record_id>  (159) 
722289

>  <document_chembl_id>  (159) 
CHEMBL1139415

>  <bao_format>  (159) 
BAO_0000357

>  <data_validity_description>  (159) 
None

>  <activity_id>  (159) 
2376486

>  <standard_type>  (159) 
IC50

>  <target_chembl_id>  (159) 
CHEMBL217

>  <data_validity_comment>  (159) 
None

>  <published_value>  (159) 
3.55

>  <document_year>  (159) 
2008

>  <target_pref_name>  (159) 
Dopamine D2 receptor

>  <assay_chembl_id>  (159) 
CHEMBL980770

>  <standard_relation>  (159) 
=

>  <assay_description>  (159) 
Displacement of radioligand from dopamine D2S receptor

>  <published_relation>  (159) 
=

>  <standard_value>  (159) 
3550

>  <qudt_units>  (159) 
http://www.openphacts.org/units/Nanomolar

>  <target_tax_id>  (159) 
9606

>  <bao_label>  (159) 
single protein format

>  <published_units>  (159) 
uM

>  <pchembl_value>  (159) 
5.45

>  <published_type>  (159) 
IC50

>  <activity_comment>  (159) 
None

$$$$

     RDKit          

 30 34  0  0  0  0  0  0  0  0999 V2000
    0.0000    0.0000    0.0000 C   0  0  0  0  0  0  0  0  0  0  0  0
    0.0000    0.0000    0.0000 C   0  0  0  0  0  0  0  0  0  0  0  0
    0.0000    0.0000    0.0000 C   0  0  0  0  0  0  0  0  0  0  0  0
    0.0000    0.0000    0.0000 C   0  0  0  0  0  0  0  0  0  0  0  0
    0.0000    0.0000    0.0000 C   0  0  0  0  0  0  0  0  0  0  0  0
    0.0000    0.0000    0.0000 C   0  0  0  0  0  0  0  0  0  0  0  0
    0.0000    0.0000    0.0000 C   0  0  0  0  0  0  0  0  0  0  0  0
    0.0000    0.0000    0.0000 C   0  0  0  0  0  0  0  0  0  0  0  0
    0.0000    0.0000    0.0000 N   0  0  0  0  0  0  0  0  0  0  0  0
    0.0000    0.0000    0.0000 C   0  0  0  0  0  0  0  0  0  0  0  0
    0.0000    0.0000    0.0000 C   0  0  0  0  0  0  0  0  0  0  0  0
    0.0000    0.0000    0.0000 C   0  0  0  0  0  0  0  0  0  0  0  0
    0.0000    0.0000    0.0000 C   0  0  0  0  0  0  0  0  0  0  0  0
    0.0000    0.0000    0.0000 C   0  0  0  0  0  0  0  0  0  0  0  0
    0.0000    0.0000    0.0000 N   0  0  0  0  0  0  0  0  0  0  0  0
    0.0000    0.0000    0.0000 C   0  0  0  0  0  0  0  0  0  0  0  0
    0.0000    0.0000    0.0000 C   0  0  0  0  0  0  0  0  0  0  0  0
    0.0000    0.0000    0.0000 C   0  0  0  0  0  0  0  0  0  0  0  0
    0.0000    0.0000    0.0000 C   0  0  0  0  0  0  0  0  0  0  0  0
    0.0000    0.0000    0.0000 C   0  0  0  0  0  0  0  0  0  0  0  0
    0.0000    0.0000    0.0000 N   0  0  0  0  0  0  0  0  0  0  0  0
    0.0000    0.0000    0.0000 C   0  0  0  0  0  0  0  0  0  0  0  0
    0.0000    0.0000    0.0000 O   0  0  0  0  0  0  0  0  0  0  0  0
    0.0000    0.0000    0.0000 N   0  0  0  0  0  0  0  0  0  0  0  0
    0.0000    0.0000    0.0000 C   0  0  0  0  0  0  0  0  0  0  0  0
    0.0000    0.0000    0.0000 C   0  0  0  0  0  0  0  0  0  0  0  0
    0.0000    0.0000    0.0000 C   0  0  0  0  0  0  0  0  0  0  0  0
    0.0000    0.0000    0.0000 C   0  0  0  0  0  0  0  0  0  0  0  0
    0.0000    0.0000    0.0000 C   0  0  0  0  0  0  0  0  0  0  0  0
    0.0000    0.0000    0.0000 C   0  0  0  0  0  0  0  0  0  0  0  0
  1  2  1  0
  2  3  2  0
  3  4  1  0
  4  5  2  0
  5  6  1  0
  6  7  2  0
  7  8  1  0
  8  9  1  0
  9 10  1  0
 10 11  1  0
 11 12  1  0
 12 13  1  0
 13 14  1  0
 12 15  1  0
 15 16  1  0
 16 17  1  0
 17 18  1  0
 18 19  1  0
 19 20  1  0
 18 21  1  0
 21 22  1  0
 22 23  2  0
 22 24  1  0
 24 25  1  0
 25 26  2  0
 26 27  1  0
 27 28  2  0
 28 29  1  0
 29 30  2  0
  7  2  1  0
 14  9  1  0
 20 15  1  0
 30 21  1  0
 30 25  1  0
M  END
>  <pIC50>  (160) 
5.435

>  <ChEMBL_ID>  (160) 
CHEMBL522460

>  <document_journal>  (160) 
Bioorg. Med. Chem. Lett.

>  <bao_endpoint>  (160) 
BAO_0000190

>  <potential_duplicate>  (160) 
False

>  <uo_units>  (160) 
UO_0000065

>  <canonical_smiles>  (160) 
Cc1ccccc1CN2CCC(CC2)N3CCC(CC3)N4C(=O)Nc5ccccc45

>  <parent_molecule_chembl_id>  (160) 
CHEMBL522460

>  <assay_type>  (160) 
F

>  <src_id>  (160) 
1

>  <ligand_efficiency>  (160) 
None

>  <standard_flag>  (160) 
True

>  <molecule_chembl_id>  (160) 
CHEMBL522460

>  <target_organism>  (160) 
Homo sapiens

>  <standard_units>  (160) 
nM

>  <record_id>  (160) 
804977

>  <document_chembl_id>  (160) 
CHEMBL1152245

>  <bao_format>  (160) 
BAO_0000019

>  <data_validity_description>  (160) 
None

>  <activity_id>  (160) 
2397884

>  <standard_type>  (160) 
IC50

>  <target_chembl_id>  (160) 
CHEMBL217

>  <data_validity_comment>  (160) 
None

>  <published_value>  (160) 
5.1

>  <document_year>  (160) 
2008

>  <target_pref_name>  (160) 
Dopamine D2 receptor

>  <assay_chembl_id>  (160) 
CHEMBL939457

>  <standard_relation>  (160) 
=

>  <assay_description>  (160) 
Antagonist activity at dopamine D2 receptor

>  <published_relation>  (160) 
=

>  <standard_value>  (160) 
5100

>  <qudt_units>  (160) 
http://www.openphacts.org/units/Nanomolar

>  <target_tax_id>  (160) 
9606

>  <bao_label>  (160) 
assay format

>  <published_units>  (160) 
uM

>  <pchembl_value>  (160) 
5.29

>  <published_type>  (160) 
IC50

>  <activity_comment>  (160) 
None

$$$$

     RDKit          

 32 36  0  0  0  0  0  0  0  0999 V2000
    0.0000    0.0000    0.0000 F   0  0  0  0  0  0  0  0  0  0  0  0
    0.0000    0.0000    0.0000 C   0  0  0  0  0  0  0  0  0  0  0  0
    0.0000    0.0000    0.0000 C   0  0  0  0  0  0  0  0  0  0  0  0
    0.0000    0.0000    0.0000 C   0  0  0  0  0  0  0  0  0  0  0  0
    0.0000    0.0000    0.0000 C   0  0  0  0  0  0  0  0  0  0  0  0
    0.0000    0.0000    0.0000 N   0  0  0  0  0  0  0  0  0  0  0  0
    0.0000    0.0000    0.0000 C   0  0  0  0  0  0  0  0  0  0  0  0
    0.0000    0.0000    0.0000 C   0  0  0  0  0  0  0  0  0  0  0  0
    0.0000    0.0000    0.0000 C   0  0  0  0  0  0  0  0  0  0  0  0
    0.0000    0.0000    0.0000 N   0  0  0  0  0  0  0  0  0  0  0  0
    0.0000    0.0000    0.0000 C   0  0  0  0  0  0  0  0  0  0  0  0
    0.0000    0.0000    0.0000 C   0  0  0  0  0  0  0  0  0  0  0  0
    0.0000    0.0000    0.0000 C   0  0  0  0  0  0  0  0  0  0  0  0
    0.0000    0.0000    0.0000 C   0  0  0  0  0  0  0  0  0  0  0  0
    0.0000    0.0000    0.0000 C   0  0  0  0  0  0  0  0  0  0  0  0
    0.0000    0.0000    0.0000 N   0  0  0  0  0  0  0  0  0  0  0  0
    0.0000    0.0000    0.0000 C   0  0  0  0  0  0  0  0  0  0  0  0
    0.0000    0.0000    0.0000 C   0  0  0  0  0  0  0  0  0  0  0  0
    0.0000    0.0000    0.0000 S   0  0  0  0  0  0  0  0  0  0  0  0
    0.0000    0.0000    0.0000 O   0  0  0  0  0  0  0  0  0  0  0  0
    0.0000    0.0000    0.0000 O   0  0  0  0  0  0  0  0  0  0  0  0
    0.0000    0.0000    0.0000 C   0  0  0  0  0  0  0  0  0  0  0  0
    0.0000    0.0000    0.0000 C   0  0  0  0  0  0  0  0  0  0  0  0
    0.0000    0.0000    0.0000 C   0  0  0  0  0  0  0  0  0  0  0  0
    0.0000    0.0000    0.0000 C   0  0  0  0  0  0  0  0  0  0  0  0
    0.0000    0.0000    0.0000 C   0  0  0  0  0  0  0  0  0  0  0  0
    0.0000    0.0000    0.0000 C   0  0  0  0  0  0  0  0  0  0  0  0
    0.0000    0.0000    0.0000 C   0  0  0  0  0  0  0  0  0  0  0  0
    0.0000    0.0000    0.0000 O   0  0  0  0  0  0  0  0  0  0  0  0
    0.0000    0.0000    0.0000 N   0  0  0  0  0  0  0  0  0  0  0  0
    0.0000    0.0000    0.0000 C   0  0  0  0  0  0  0  0  0  0  0  0
    0.0000    0.0000    0.0000 C   0  0  0  0  0  0  0  0  0  0  0  0
  1  2  1  0
  2  3  2  0
  3  4  1  0
  4  5  2  0
  5  6  1  0
  6  7  1  0
  7  8  1  0
  8  9  1  0
  9 10  1  0
 10 11  1  0
 11 12  1  0
 10 13  1  0
 13 14  1  0
 14 15  1  0
 15 16  1  0
 16 17  1  0
 17 18  1  0
 16 19  1  0
 19 20  2  0
 19 21  2  0
 19 22  1  0
 22 23  2  0
 23 24  1  0
 24 25  2  0
 25 26  1  0
 26 27  2  0
  6 28  1  0
 28 29  2  0
 28 30  1  0
 30 31  1  0
 31 32  2  0
 32  2  1  0
 31  5  1  0
 12  7  1  0
 18 13  1  0
 27 22  1  0
M  END
>  <pIC50>  (161) 
5.44

>  <ChEMBL_ID>  (161) 
CHEMBL485755

>  <document_journal>  (161) 
Bioorg. Med. Chem. Lett.

>  <bao_endpoint>  (161) 
BAO_0000190

>  <potential_duplicate>  (161) 
False

>  <uo_units>  (161) 
UO_0000065

>  <canonical_smiles>  (161) 
Fc1ccc2N(C3CCN(CC3)C4CCN(CC4)S(=O)(=O)c5ccccc5)C(=O)Nc2c1

>  <parent_molecule_chembl_id>  (161) 
CHEMBL485755

>  <assay_type>  (161) 
F

>  <src_id>  (161) 
1

>  <ligand_efficiency>  (161) 
None

>  <standard_flag>  (161) 
True

>  <molecule_chembl_id>  (161) 
CHEMBL485755

>  <target_organism>  (161) 
Homo sapiens

>  <standard_units>  (161) 
nM

>  <record_id>  (161) 
803962

>  <document_chembl_id>  (161) 
CHEMBL1152245

>  <bao_format>  (161) 
BAO_0000019

>  <data_validity_description>  (161) 
None

>  <activity_id>  (161) 
2397886

>  <standard_type>  (161) 
IC50

>  <target_chembl_id>  (161) 
CHEMBL217

>  <data_validity_comment>  (161) 
None

>  <published_value>  (161) 
3.6

>  <document_year>  (161) 
2008

>  <target_pref_name>  (161) 
Dopamine D2 receptor

>  <assay_chembl_id>  (161) 
CHEMBL939457

>  <standard_relation>  (161) 
=

>  <assay_description>  (161) 
Antagonist activity at dopamine D2 receptor

>  <published_relation>  (161) 
=

>  <standard_value>  (161) 
3600

>  <qudt_units>  (161) 
http://www.openphacts.org/units/Nanomolar

>  <target_tax_id>  (161) 
9606

>  <bao_label>  (161) 
assay format

>  <published_units>  (161) 
uM

>  <pchembl_value>  (161) 
5.44

>  <published_type>  (161) 
IC50

>  <activity_comment>  (161) 
None

$$$$

     RDKit          

 32 36  0  0  0  0  0  0  0  0999 V2000
    0.0000    0.0000    0.0000 Cl  0  0  0  0  0  0  0  0  0  0  0  0
    0.0000    0.0000    0.0000 C   0  0  0  0  0  0  0  0  0  0  0  0
    0.0000    0.0000    0.0000 C   0  0  0  0  0  0  0  0  0  0  0  0
    0.0000    0.0000    0.0000 C   0  0  0  0  0  0  0  0  0  0  0  0
    0.0000    0.0000    0.0000 C   0  0  0  0  0  0  0  0  0  0  0  0
    0.0000    0.0000    0.0000 N   0  0  0  0  0  0  0  0  0  0  0  0
    0.0000    0.0000    0.0000 C   0  0  0  0  0  0  0  0  0  0  0  0
    0.0000    0.0000    0.0000 C   0  0  0  0  0  0  0  0  0  0  0  0
    0.0000    0.0000    0.0000 C   0  0  0  0  0  0  0  0  0  0  0  0
    0.0000    0.0000    0.0000 N   0  0  0  0  0  0  0  0  0  0  0  0
    0.0000    0.0000    0.0000 C   0  0  0  0  0  0  0  0  0  0  0  0
    0.0000    0.0000    0.0000 C   0  0  0  0  0  0  0  0  0  0  0  0
    0.0000    0.0000    0.0000 C   0  0  0  0  0  0  0  0  0  0  0  0
    0.0000    0.0000    0.0000 C   0  0  0  0  0  0  0  0  0  0  0  0
    0.0000    0.0000    0.0000 C   0  0  0  0  0  0  0  0  0  0  0  0
    0.0000    0.0000    0.0000 N   0  0  0  0  0  0  0  0  0  0  0  0
    0.0000    0.0000    0.0000 C   0  0  0  0  0  0  0  0  0  0  0  0
    0.0000    0.0000    0.0000 C   0  0  0  0  0  0  0  0  0  0  0  0
    0.0000    0.0000    0.0000 S   0  0  0  0  0  0  0  0  0  0  0  0
    0.0000    0.0000    0.0000 O   0  0  0  0  0  0  0  0  0  0  0  0
    0.0000    0.0000    0.0000 O   0  0  0  0  0  0  0  0  0  0  0  0
    0.0000    0.0000    0.0000 C   0  0  0  0  0  0  0  0  0  0  0  0
    0.0000    0.0000    0.0000 C   0  0  0  0  0  0  0  0  0  0  0  0
    0.0000    0.0000    0.0000 C   0  0  0  0  0  0  0  0  0  0  0  0
    0.0000    0.0000    0.0000 C   0  0  0  0  0  0  0  0  0  0  0  0
    0.0000    0.0000    0.0000 C   0  0  0  0  0  0  0  0  0  0  0  0
    0.0000    0.0000    0.0000 C   0  0  0  0  0  0  0  0  0  0  0  0
    0.0000    0.0000    0.0000 C   0  0  0  0  0  0  0  0  0  0  0  0
    0.0000    0.0000    0.0000 O   0  0  0  0  0  0  0  0  0  0  0  0
    0.0000    0.0000    0.0000 N   0  0  0  0  0  0  0  0  0  0  0  0
    0.0000    0.0000    0.0000 C   0  0  0  0  0  0  0  0  0  0  0  0
    0.0000    0.0000    0.0000 C   0  0  0  0  0  0  0  0  0  0  0  0
  1  2  1  0
  2  3  2  0
  3  4  1  0
  4  5  2  0
  5  6  1  0
  6  7  1  0
  7  8  1  0
  8  9  1  0
  9 10  1  0
 10 11  1  0
 11 12  1  0
 10 13  1  0
 13 14  1  0
 14 15  1  0
 15 16  1  0
 16 17  1  0
 17 18  1  0
 16 19  1  0
 19 20  2  0
 19 21  2  0
 19 22  1  0
 22 23  2  0
 23 24  1  0
 24 25  2  0
 25 26  1  0
 26 27  2  0
  6 28  1  0
 28 29  2  0
 28 30  1  0
 30 31  1  0
 31 32  2  0
 32  2  1  0
 31  5  1  0
 12  7  1  0
 18 13  1  0
 27 22  1  0
M  END
>  <pIC50>  (162) 
5.64

>  <ChEMBL_ID>  (162) 
CHEMBL521030

>  <document_journal>  (162) 
Bioorg. Med. Chem. Lett.

>  <bao_endpoint>  (162) 
BAO_0000190

>  <potential_duplicate>  (162) 
False

>  <uo_units>  (162) 
UO_0000065

>  <canonical_smiles>  (162) 
Clc1ccc2N(C3CCN(CC3)C4CCN(CC4)S(=O)(=O)c5ccccc5)C(=O)Nc2c1

>  <parent_molecule_chembl_id>  (162) 
CHEMBL521030

>  <assay_type>  (162) 
F

>  <src_id>  (162) 
1

>  <ligand_efficiency>  (162) 
None

>  <standard_flag>  (162) 
True

>  <molecule_chembl_id>  (162) 
CHEMBL521030

>  <target_organism>  (162) 
Homo sapiens

>  <standard_units>  (162) 
nM

>  <record_id>  (162) 
803964

>  <document_chembl_id>  (162) 
CHEMBL1152245

>  <bao_format>  (162) 
BAO_0000019

>  <data_validity_description>  (162) 
None

>  <activity_id>  (162) 
2397888

>  <standard_type>  (162) 
IC50

>  <target_chembl_id>  (162) 
CHEMBL217

>  <data_validity_comment>  (162) 
None

>  <published_value>  (162) 
2.3

>  <document_year>  (162) 
2008

>  <target_pref_name>  (162) 
Dopamine D2 receptor

>  <assay_chembl_id>  (162) 
CHEMBL939457

>  <standard_relation>  (162) 
=

>  <assay_description>  (162) 
Antagonist activity at dopamine D2 receptor

>  <published_relation>  (162) 
=

>  <standard_value>  (162) 
2300

>  <qudt_units>  (162) 
http://www.openphacts.org/units/Nanomolar

>  <target_tax_id>  (162) 
9606

>  <bao_label>  (162) 
assay format

>  <published_units>  (162) 
uM

>  <pchembl_value>  (162) 
5.64

>  <published_type>  (162) 
IC50

>  <activity_comment>  (162) 
None

$$$$

     RDKit          

 32 36  0  0  0  0  0  0  0  0999 V2000
    0.0000    0.0000    0.0000 Br  0  0  0  0  0  0  0  0  0  0  0  0
    0.0000    0.0000    0.0000 C   0  0  0  0  0  0  0  0  0  0  0  0
    0.0000    0.0000    0.0000 C   0  0  0  0  0  0  0  0  0  0  0  0
    0.0000    0.0000    0.0000 C   0  0  0  0  0  0  0  0  0  0  0  0
    0.0000    0.0000    0.0000 C   0  0  0  0  0  0  0  0  0  0  0  0
    0.0000    0.0000    0.0000 N   0  0  0  0  0  0  0  0  0  0  0  0
    0.0000    0.0000    0.0000 C   0  0  0  0  0  0  0  0  0  0  0  0
    0.0000    0.0000    0.0000 C   0  0  0  0  0  0  0  0  0  0  0  0
    0.0000    0.0000    0.0000 C   0  0  0  0  0  0  0  0  0  0  0  0
    0.0000    0.0000    0.0000 N   0  0  0  0  0  0  0  0  0  0  0  0
    0.0000    0.0000    0.0000 C   0  0  0  0  0  0  0  0  0  0  0  0
    0.0000    0.0000    0.0000 C   0  0  0  0  0  0  0  0  0  0  0  0
    0.0000    0.0000    0.0000 C   0  0  0  0  0  0  0  0  0  0  0  0
    0.0000    0.0000    0.0000 C   0  0  0  0  0  0  0  0  0  0  0  0
    0.0000    0.0000    0.0000 C   0  0  0  0  0  0  0  0  0  0  0  0
    0.0000    0.0000    0.0000 N   0  0  0  0  0  0  0  0  0  0  0  0
    0.0000    0.0000    0.0000 C   0  0  0  0  0  0  0  0  0  0  0  0
    0.0000    0.0000    0.0000 C   0  0  0  0  0  0  0  0  0  0  0  0
    0.0000    0.0000    0.0000 S   0  0  0  0  0  0  0  0  0  0  0  0
    0.0000    0.0000    0.0000 O   0  0  0  0  0  0  0  0  0  0  0  0
    0.0000    0.0000    0.0000 O   0  0  0  0  0  0  0  0  0  0  0  0
    0.0000    0.0000    0.0000 C   0  0  0  0  0  0  0  0  0  0  0  0
    0.0000    0.0000    0.0000 C   0  0  0  0  0  0  0  0  0  0  0  0
    0.0000    0.0000    0.0000 C   0  0  0  0  0  0  0  0  0  0  0  0
    0.0000    0.0000    0.0000 C   0  0  0  0  0  0  0  0  0  0  0  0
    0.0000    0.0000    0.0000 C   0  0  0  0  0  0  0  0  0  0  0  0
    0.0000    0.0000    0.0000 C   0  0  0  0  0  0  0  0  0  0  0  0
    0.0000    0.0000    0.0000 C   0  0  0  0  0  0  0  0  0  0  0  0
    0.0000    0.0000    0.0000 O   0  0  0  0  0  0  0  0  0  0  0  0
    0.0000    0.0000    0.0000 N   0  0  0  0  0  0  0  0  0  0  0  0
    0.0000    0.0000    0.0000 C   0  0  0  0  0  0  0  0  0  0  0  0
    0.0000    0.0000    0.0000 C   0  0  0  0  0  0  0  0  0  0  0  0
  1  2  1  0
  2  3  2  0
  3  4  1  0
  4  5  2  0
  5  6  1  0
  6  7  1  0
  7  8  1  0
  8  9  1  0
  9 10  1  0
 10 11  1  0
 11 12  1  0
 10 13  1  0
 13 14  1  0
 14 15  1  0
 15 16  1  0
 16 17  1  0
 17 18  1  0
 16 19  1  0
 19 20  2  0
 19 21  2  0
 19 22  1  0
 22 23  2  0
 23 24  1  0
 24 25  2  0
 25 26  1  0
 26 27  2  0
  6 28  1  0
 28 29  2  0
 28 30  1  0
 30 31  1  0
 31 32  2  0
 32  2  1  0
 31  5  1  0
 12  7  1  0
 18 13  1  0
 27 22  1  0
M  END
>  <pIC50>  (163) 
5.57

>  <ChEMBL_ID>  (163) 
CHEMBL487984

>  <document_journal>  (163) 
Bioorg. Med. Chem. Lett.

>  <bao_endpoint>  (163) 
BAO_0000190

>  <potential_duplicate>  (163) 
False

>  <uo_units>  (163) 
UO_0000065

>  <canonical_smiles>  (163) 
Brc1ccc2N(C3CCN(CC3)C4CCN(CC4)S(=O)(=O)c5ccccc5)C(=O)Nc2c1

>  <parent_molecule_chembl_id>  (163) 
CHEMBL487984

>  <assay_type>  (163) 
F

>  <src_id>  (163) 
1

>  <ligand_efficiency>  (163) 
None

>  <standard_flag>  (163) 
True

>  <molecule_chembl_id>  (163) 
CHEMBL487984

>  <target_organism>  (163) 
Homo sapiens

>  <standard_units>  (163) 
nM

>  <record_id>  (163) 
804060

>  <document_chembl_id>  (163) 
CHEMBL1152245

>  <bao_format>  (163) 
BAO_0000019

>  <data_validity_description>  (163) 
None

>  <activity_id>  (163) 
2397889

>  <standard_type>  (163) 
IC50

>  <target_chembl_id>  (163) 
CHEMBL217

>  <data_validity_comment>  (163) 
None

>  <published_value>  (163) 
2.7

>  <document_year>  (163) 
2008

>  <target_pref_name>  (163) 
Dopamine D2 receptor

>  <assay_chembl_id>  (163) 
CHEMBL939457

>  <standard_relation>  (163) 
=

>  <assay_description>  (163) 
Antagonist activity at dopamine D2 receptor

>  <published_relation>  (163) 
=

>  <standard_value>  (163) 
2700

>  <qudt_units>  (163) 
http://www.openphacts.org/units/Nanomolar

>  <target_tax_id>  (163) 
9606

>  <bao_label>  (163) 
assay format

>  <published_units>  (163) 
uM

>  <pchembl_value>  (163) 
5.57

>  <published_type>  (163) 
IC50

>  <activity_comment>  (163) 
None

$$$$

     RDKit          

 37 41  0  0  0  0  0  0  0  0999 V2000
    0.0000    0.0000    0.0000 F   0  0  0  0  0  0  0  0  0  0  0  0
    0.0000    0.0000    0.0000 C   0  0  0  0  0  0  0  0  0  0  0  0
    0.0000    0.0000    0.0000 C   0  0  0  0  0  0  0  0  0  0  0  0
    0.0000    0.0000    0.0000 C   0  0  0  0  0  0  0  0  0  0  0  0
    0.0000    0.0000    0.0000 C   0  0  0  0  0  0  0  0  0  0  0  0
    0.0000    0.0000    0.0000 C   0  0  0  0  0  0  0  0  0  0  0  0
    0.0000    0.0000    0.0000 N   0  0  0  0  0  0  0  0  0  0  0  0
    0.0000    0.0000    0.0000 C   0  0  0  0  0  0  0  0  0  0  0  0
    0.0000    0.0000    0.0000 C   0  0  0  0  0  0  0  0  0  0  0  0
    0.0000    0.0000    0.0000 C   0  0  0  0  0  0  0  0  0  0  0  0
    0.0000    0.0000    0.0000 N   0  0  0  0  0  0  0  0  0  0  0  0
    0.0000    0.0000    0.0000 C   0  0  0  0  0  0  0  0  0  0  0  0
    0.0000    0.0000    0.0000 C   0  0  0  0  0  0  0  0  0  0  0  0
    0.0000    0.0000    0.0000 C   0  0  0  0  0  0  0  0  0  0  0  0
    0.0000    0.0000    0.0000 C   0  0  0  0  0  0  0  0  0  0  0  0
    0.0000    0.0000    0.0000 C   0  0  0  0  0  0  0  0  0  0  0  0
    0.0000    0.0000    0.0000 N   0  0  0  0  0  0  0  0  0  0  0  0
    0.0000    0.0000    0.0000 C   0  0  0  0  0  0  0  0  0  0  0  0
    0.0000    0.0000    0.0000 C   0  0  0  0  0  0  0  0  0  0  0  0
    0.0000    0.0000    0.0000 C   0  0  0  0  0  0  0  0  0  0  0  0
    0.0000    0.0000    0.0000 O   0  0  0  0  0  0  0  0  0  0  0  0
    0.0000    0.0000    0.0000 N   0  0  0  0  0  0  0  0  0  0  0  0
    0.0000    0.0000    0.0000 C   0  0  0  0  0  0  0  0  0  0  0  0
    0.0000    0.0000    0.0000 C   0  0  0  0  0  0  0  0  0  0  0  0
    0.0000    0.0000    0.0000 C   0  0  0  0  0  0  0  0  0  0  0  0
    0.0000    0.0000    0.0000 C   0  0  0  0  0  0  0  0  0  0  0  0
    0.0000    0.0000    0.0000 C   0  0  0  0  0  0  0  0  0  0  0  0
    0.0000    0.0000    0.0000 S   0  0  0  0  0  0  0  0  0  0  0  0
    0.0000    0.0000    0.0000 C   0  0  0  0  0  0  0  0  0  0  0  0
    0.0000    0.0000    0.0000 F   0  0  0  0  0  0  0  0  0  0  0  0
    0.0000    0.0000    0.0000 F   0  0  0  0  0  0  0  0  0  0  0  0
    0.0000    0.0000    0.0000 F   0  0  0  0  0  0  0  0  0  0  0  0
    0.0000    0.0000    0.0000 C   0  0  0  0  0  0  0  0  0  0  0  0
    0.0000    0.0000    0.0000 C   0  0  0  0  0  0  0  0  0  0  0  0
    0.0000    0.0000    0.0000 O   0  0  0  0  0  0  0  0  0  0  0  0
    0.0000    0.0000    0.0000 N   0  0  0  0  0  0  0  0  0  0  0  0
    0.0000    0.0000    0.0000 C   0  0  0  0  0  0  0  0  0  0  0  0
  1  2  1  0
  2  3  2  0
  3  4  1  0
  4  5  2  0
  5  6  1  0
  6  7  1  0
  7  8  1  0
  8  9  1  0
  9 10  1  0
 10 11  1  0
 11 12  1  0
 12 13  1  0
 11 14  1  0
 14 15  1  0
 15 16  1  0
 16 17  1  0
 17 18  1  0
 18 19  1  0
 17 20  1  0
 20 21  2  0
 20 22  1  0
 22 23  1  0
 23 24  2  0
 24 25  1  0
 25 26  2  0
 26 27  1  0
 27 28  1  0
 28 29  1  0
 29 30  1  0
 29 31  1  0
 29 32  1  0
 27 33  2  0
  7 34  1  0
 34 35  2  0
 34 36  1  0
 36 37  1  0
 37  2  1  0
 37  6  2  0
 13  8  1  0
 19 14  1  0
 33 23  1  0
M  END
>  <pIC50>  (164) 
5.96

>  <ChEMBL_ID>  (164) 
CHEMBL487788

>  <document_journal>  (164) 
Bioorg. Med. Chem. Lett.

>  <bao_endpoint>  (164) 
BAO_0000190

>  <potential_duplicate>  (164) 
False

>  <uo_units>  (164) 
UO_0000065

>  <canonical_smiles>  (164) 
Fc1cccc2N(C3CCN(CC3)C4CCN(CC4)C(=O)Nc5cccc(SC(F)(F)F)c5)C(=O)Nc12

>  <parent_molecule_chembl_id>  (164) 
CHEMBL487788

>  <assay_type>  (164) 
F

>  <src_id>  (164) 
1

>  <ligand_efficiency>  (164) 
None

>  <standard_flag>  (164) 
True

>  <molecule_chembl_id>  (164) 
CHEMBL487788

>  <target_organism>  (164) 
Homo sapiens

>  <standard_units>  (164) 
nM

>  <record_id>  (164) 
804061

>  <document_chembl_id>  (164) 
CHEMBL1152245

>  <bao_format>  (164) 
BAO_0000019

>  <data_validity_description>  (164) 
None

>  <activity_id>  (164) 
2397890

>  <standard_type>  (164) 
IC50

>  <target_chembl_id>  (164) 
CHEMBL217

>  <data_validity_comment>  (164) 
None

>  <published_value>  (164) 
1.1

>  <document_year>  (164) 
2008

>  <target_pref_name>  (164) 
Dopamine D2 receptor

>  <assay_chembl_id>  (164) 
CHEMBL939457

>  <standard_relation>  (164) 
=

>  <assay_description>  (164) 
Antagonist activity at dopamine D2 receptor

>  <published_relation>  (164) 
=

>  <standard_value>  (164) 
1100

>  <qudt_units>  (164) 
http://www.openphacts.org/units/Nanomolar

>  <target_tax_id>  (164) 
9606

>  <bao_label>  (164) 
assay format

>  <published_units>  (164) 
uM

>  <pchembl_value>  (164) 
5.96

>  <published_type>  (164) 
IC50

>  <activity_comment>  (164) 
None

$$$$

     RDKit          

 37 41  0  0  0  0  0  0  0  0999 V2000
    0.0000    0.0000    0.0000 F   0  0  0  0  0  0  0  0  0  0  0  0
    0.0000    0.0000    0.0000 C   0  0  0  0  0  0  0  0  0  0  0  0
    0.0000    0.0000    0.0000 C   0  0  0  0  0  0  0  0  0  0  0  0
    0.0000    0.0000    0.0000 C   0  0  0  0  0  0  0  0  0  0  0  0
    0.0000    0.0000    0.0000 C   0  0  0  0  0  0  0  0  0  0  0  0
    0.0000    0.0000    0.0000 N   0  0  0  0  0  0  0  0  0  0  0  0
    0.0000    0.0000    0.0000 C   0  0  0  0  0  0  0  0  0  0  0  0
    0.0000    0.0000    0.0000 O   0  0  0  0  0  0  0  0  0  0  0  0
    0.0000    0.0000    0.0000 N   0  0  0  0  0  0  0  0  0  0  0  0
    0.0000    0.0000    0.0000 C   0  0  0  0  0  0  0  0  0  0  0  0
    0.0000    0.0000    0.0000 C   0  0  0  0  0  0  0  0  0  0  0  0
    0.0000    0.0000    0.0000 C   0  0  0  0  0  0  0  0  0  0  0  0
    0.0000    0.0000    0.0000 N   0  0  0  0  0  0  0  0  0  0  0  0
    0.0000    0.0000    0.0000 C   0  0  0  0  0  0  0  0  0  0  0  0
    0.0000    0.0000    0.0000 C   0  0  0  0  0  0  0  0  0  0  0  0
    0.0000    0.0000    0.0000 C   0  0  0  0  0  0  0  0  0  0  0  0
    0.0000    0.0000    0.0000 C   0  0  0  0  0  0  0  0  0  0  0  0
    0.0000    0.0000    0.0000 C   0  0  0  0  0  0  0  0  0  0  0  0
    0.0000    0.0000    0.0000 N   0  0  0  0  0  0  0  0  0  0  0  0
    0.0000    0.0000    0.0000 C   0  0  0  0  0  0  0  0  0  0  0  0
    0.0000    0.0000    0.0000 C   0  0  0  0  0  0  0  0  0  0  0  0
    0.0000    0.0000    0.0000 C   0  0  0  0  0  0  0  0  0  0  0  0
    0.0000    0.0000    0.0000 O   0  0  0  0  0  0  0  0  0  0  0  0
    0.0000    0.0000    0.0000 N   0  0  0  0  0  0  0  0  0  0  0  0
    0.0000    0.0000    0.0000 C   0  0  0  0  0  0  0  0  0  0  0  0
    0.0000    0.0000    0.0000 C   0  0  0  0  0  0  0  0  0  0  0  0
    0.0000    0.0000    0.0000 C   0  0  0  0  0  0  0  0  0  0  0  0
    0.0000    0.0000    0.0000 C   0  0  0  0  0  0  0  0  0  0  0  0
    0.0000    0.0000    0.0000 C   0  0  0  0  0  0  0  0  0  0  0  0
    0.0000    0.0000    0.0000 S   0  0  0  0  0  0  0  0  0  0  0  0
    0.0000    0.0000    0.0000 C   0  0  0  0  0  0  0  0  0  0  0  0
    0.0000    0.0000    0.0000 F   0  0  0  0  0  0  0  0  0  0  0  0
    0.0000    0.0000    0.0000 F   0  0  0  0  0  0  0  0  0  0  0  0
    0.0000    0.0000    0.0000 F   0  0  0  0  0  0  0  0  0  0  0  0
    0.0000    0.0000    0.0000 C   0  0  0  0  0  0  0  0  0  0  0  0
    0.0000    0.0000    0.0000 C   0  0  0  0  0  0  0  0  0  0  0  0
    0.0000    0.0000    0.0000 C   0  0  0  0  0  0  0  0  0  0  0  0
  1  2  1  0
  2  3  2  0
  3  4  1  0
  4  5  2  0
  5  6  1  0
  6  7  1  0
  7  8  2  0
  7  9  1  0
  9 10  1  0
 10 11  1  0
 11 12  1  0
 12 13  1  0
 13 14  1  0
 14 15  1  0
 13 16  1  0
 16 17  1  0
 17 18  1  0
 18 19  1  0
 19 20  1  0
 20 21  1  0
 19 22  1  0
 22 23  2  0
 22 24  1  0
 24 25  1  0
 25 26  2  0
 26 27  1  0
 27 28  2  0
 28 29  1  0
 29 30  1  0
 30 31  1  0
 31 32  1  0
 31 33  1  0
 31 34  1  0
 29 35  2  0
  9 36  1  0
 36 37  2  0
 37  2  1  0
 36  5  1  0
 15 10  1  0
 21 16  1  0
 35 25  1  0
M  END
>  <pIC50>  (165) 
5.72

>  <ChEMBL_ID>  (165) 
CHEMBL487985

>  <document_journal>  (165) 
Bioorg. Med. Chem. Lett.

>  <bao_endpoint>  (165) 
BAO_0000190

>  <potential_duplicate>  (165) 
False

>  <uo_units>  (165) 
UO_0000065

>  <canonical_smiles>  (165) 
Fc1ccc2NC(=O)N(C3CCN(CC3)C4CCN(CC4)C(=O)Nc5cccc(SC(F)(F)F)c5)c2c1

>  <parent_molecule_chembl_id>  (165) 
CHEMBL487985

>  <assay_type>  (165) 
F

>  <src_id>  (165) 
1

>  <ligand_efficiency>  (165) 
None

>  <standard_flag>  (165) 
True

>  <molecule_chembl_id>  (165) 
CHEMBL487985

>  <target_organism>  (165) 
Homo sapiens

>  <standard_units>  (165) 
nM

>  <record_id>  (165) 
804062

>  <document_chembl_id>  (165) 
CHEMBL1152245

>  <bao_format>  (165) 
BAO_0000019

>  <data_validity_description>  (165) 
None

>  <activity_id>  (165) 
2397891

>  <standard_type>  (165) 
IC50

>  <target_chembl_id>  (165) 
CHEMBL217

>  <data_validity_comment>  (165) 
None

>  <published_value>  (165) 
1.9

>  <document_year>  (165) 
2008

>  <target_pref_name>  (165) 
Dopamine D2 receptor

>  <assay_chembl_id>  (165) 
CHEMBL939457

>  <standard_relation>  (165) 
=

>  <assay_description>  (165) 
Antagonist activity at dopamine D2 receptor

>  <published_relation>  (165) 
=

>  <standard_value>  (165) 
1900

>  <qudt_units>  (165) 
http://www.openphacts.org/units/Nanomolar

>  <target_tax_id>  (165) 
9606

>  <bao_label>  (165) 
assay format

>  <published_units>  (165) 
uM

>  <pchembl_value>  (165) 
5.72

>  <published_type>  (165) 
IC50

>  <activity_comment>  (165) 
None

$$$$

     RDKit          

 27 31  0  0  0  0  0  0  0  0999 V2000
    0.0000    0.0000    0.0000 C   0  0  0  0  0  0  0  0  0  0  0  0
    0.0000    0.0000    0.0000 C   0  0  0  0  0  0  0  0  0  0  0  0
    0.0000    0.0000    0.0000 C   0  0  0  0  0  0  0  0  0  0  0  0
    0.0000    0.0000    0.0000 C   0  0  0  0  0  0  0  0  0  0  0  0
    0.0000    0.0000    0.0000 C   0  0  0  0  0  0  0  0  0  0  0  0
    0.0000    0.0000    0.0000 O   0  0  0  0  0  0  0  0  0  0  0  0
    0.0000    0.0000    0.0000 C   0  0  0  0  0  0  0  0  0  0  0  0
    0.0000    0.0000    0.0000 C   0  0  0  0  0  0  0  0  0  0  0  0
    0.0000    0.0000    0.0000 N   0  0  0  0  0  0  0  0  0  0  0  0
    0.0000    0.0000    0.0000 C   0  0  0  0  0  0  0  0  0  0  0  0
    0.0000    0.0000    0.0000 C   0  0  0  0  0  0  0  0  0  0  0  0
    0.0000    0.0000    0.0000 C   0  0  0  0  0  0  0  0  0  0  0  0
    0.0000    0.0000    0.0000 C   0  0  0  0  0  0  0  0  0  0  0  0
    0.0000    0.0000    0.0000 C   0  0  0  0  0  0  0  0  0  0  0  0
    0.0000    0.0000    0.0000 C   0  0  0  0  0  0  0  0  0  0  0  0
    0.0000    0.0000    0.0000 C   0  0  0  0  0  0  0  0  0  0  0  0
    0.0000    0.0000    0.0000 C   0  0  0  0  0  0  0  0  0  0  0  0
    0.0000    0.0000    0.0000 C   0  0  0  0  0  0  0  0  0  0  0  0
    0.0000    0.0000    0.0000 C   0  0  0  0  0  0  0  0  0  0  0  0
    0.0000    0.0000    0.0000 C   0  0  0  0  0  0  0  0  0  0  0  0
    0.0000    0.0000    0.0000 C   0  0  0  0  0  0  0  0  0  0  0  0
    0.0000    0.0000    0.0000 C   0  0  0  0  0  0  0  0  0  0  0  0
    0.0000    0.0000    0.0000 C   0  0  0  0  0  0  0  0  0  0  0  0
    0.0000    0.0000    0.0000 C   0  0  0  0  0  0  0  0  0  0  0  0
    0.0000    0.0000    0.0000 C   0  0  0  0  0  0  0  0  0  0  0  0
    0.0000    0.0000    0.0000 C   0  0  0  0  0  0  0  0  0  0  0  0
    0.0000    0.0000    0.0000 C   0  0  0  0  0  0  0  0  0  0  0  0
  1  2  1  0
  2  3  1  0
  2  4  1  0
  2  5  1  0
  5  6  1  0
  5  7  1  0
  7  8  1  0
  8  9  1  0
  9 10  1  0
 10 11  1  0
 11 12  1  0
 12 13  2  0
 13 14  1  0
 14 15  2  0
 15 16  1  0
 16 17  2  0
 17 18  1  0
 18 19  1  0
 19 20  1  0
 20 21  2  0
 21 22  1  0
 22 23  2  0
 23 24  1  0
 24 25  1  0
 25 26  1  0
 24 27  2  0
 26  5  1  0
 25  9  1  0
 27 11  1  0
 17 12  1  0
 27 20  1  0
M  END
>  <pIC50>  (166) 
8.262

>  <ChEMBL_ID>  (166) 
CHEMBL1255588

>  <document_journal>  (166) 
J. Med. Chem.

>  <bao_endpoint>  (166) 
BAO_0000190

>  <potential_duplicate>  (166) 
False

>  <uo_units>  (166) 
UO_0000065

>  <canonical_smiles>  (166) 
CC(C)(C)[C@@]1(O)CCN2C[C@@H]3c4ccccc4CCc5cccc([C@H]2C1)c35

>  <parent_molecule_chembl_id>  (166) 
CHEMBL1255588

>  <assay_type>  (166) 
B

>  <src_id>  (166) 
1

>  <ligand_efficiency>  (166) 
{u'le': u'0.41', u'bei': u'22.3', u'sei': u'34.34', u'lle': u'3.35'}

>  <standard_flag>  (166) 
True

>  <molecule_chembl_id>  (166) 
CHEMBL1255588

>  <target_organism>  (166) 
Homo sapiens

>  <standard_units>  (166) 
nM

>  <record_id>  (166) 
1311174

>  <document_chembl_id>  (166) 
CHEMBL1140203

>  <bao_format>  (166) 
BAO_0000357

>  <data_validity_description>  (166) 
None

>  <activity_id>  (166) 
2401860

>  <standard_type>  (166) 
IC50

>  <target_chembl_id>  (166) 
CHEMBL217

>  <data_validity_comment>  (166) 
None

>  <published_value>  (166) 
8.7

>  <document_year>  (166) 
2008

>  <target_pref_name>  (166) 
Dopamine D2 receptor

>  <assay_chembl_id>  (166) 
CHEMBL953137

>  <standard_relation>  (166) 
=

>  <assay_description>  (166) 
Displacement of radiolabeled (+)butaclamol from human dopamine D2S receptor

>  <published_relation>  (166) 
=

>  <standard_value>  (166) 
8.7

>  <qudt_units>  (166) 
http://www.openphacts.org/units/Nanomolar

>  <target_tax_id>  (166) 
9606

>  <bao_label>  (166) 
single protein format

>  <published_units>  (166) 
10'-9M

>  <pchembl_value>  (166) 
8.06

>  <published_type>  (166) 
IC50

>  <activity_comment>  (166) 
None

$$$$

     RDKit          

 32 36  0  0  0  0  0  0  0  0999 V2000
    0.0000    0.0000    0.0000 O   0  0  0  0  0  0  0  0  0  0  0  0
    0.0000    0.0000    0.0000 N   0  0  0  0  0  0  0  0  0  0  0  0
    0.0000    0.0000    0.0000 O   0  0  0  0  0  0  0  0  0  0  0  0
    0.0000    0.0000    0.0000 C   0  0  0  0  0  0  0  0  0  0  0  0
    0.0000    0.0000    0.0000 C   0  0  0  0  0  0  0  0  0  0  0  0
    0.0000    0.0000    0.0000 C   0  0  0  0  0  0  0  0  0  0  0  0
    0.0000    0.0000    0.0000 C   0  0  0  0  0  0  0  0  0  0  0  0
    0.0000    0.0000    0.0000 C   0  0  0  0  0  0  0  0  0  0  0  0
    0.0000    0.0000    0.0000 C   0  0  0  0  0  0  0  0  0  0  0  0
    0.0000    0.0000    0.0000 C   0  0  0  0  0  0  0  0  0  0  0  0
    0.0000    0.0000    0.0000 N   0  0  0  0  0  0  0  0  0  0  0  0
    0.0000    0.0000    0.0000 C   0  0  0  0  0  0  0  0  0  0  0  0
    0.0000    0.0000    0.0000 C   0  0  0  0  0  0  0  0  0  0  0  0
    0.0000    0.0000    0.0000 C   0  0  0  0  0  0  0  0  0  0  0  0
    0.0000    0.0000    0.0000 C   0  0  0  0  0  0  0  0  0  0  0  0
    0.0000    0.0000    0.0000 C   0  0  0  0  0  0  0  0  0  0  0  0
    0.0000    0.0000    0.0000 N   0  0  0  0  0  0  0  0  0  0  0  0
    0.0000    0.0000    0.0000 C   0  0  0  0  0  0  0  0  0  0  0  0
    0.0000    0.0000    0.0000 C   0  0  0  0  0  0  0  0  0  0  0  0
    0.0000    0.0000    0.0000 C   0  0  0  0  0  0  0  0  0  0  0  0
    0.0000    0.0000    0.0000 C   0  0  0  0  0  0  0  0  0  0  0  0
    0.0000    0.0000    0.0000 C   0  0  0  0  0  0  0  0  0  0  0  0
    0.0000    0.0000    0.0000 N   0  0  0  0  0  0  0  0  0  0  0  0
    0.0000    0.0000    0.0000 C   0  0  0  0  0  0  0  0  0  0  0  0
    0.0000    0.0000    0.0000 O   0  0  0  0  0  0  0  0  0  0  0  0
    0.0000    0.0000    0.0000 N   0  0  0  0  0  0  0  0  0  0  0  0
    0.0000    0.0000    0.0000 C   0  0  0  0  0  0  0  0  0  0  0  0
    0.0000    0.0000    0.0000 C   0  0  0  0  0  0  0  0  0  0  0  0
    0.0000    0.0000    0.0000 C   0  0  0  0  0  0  0  0  0  0  0  0
    0.0000    0.0000    0.0000 C   0  0  0  0  0  0  0  0  0  0  0  0
    0.0000    0.0000    0.0000 C   0  0  0  0  0  0  0  0  0  0  0  0
    0.0000    0.0000    0.0000 C   0  0  0  0  0  0  0  0  0  0  0  0
  1  2  1  0
  2  3  2  0
  2  4  1  0
  4  5  2  0
  5  6  1  0
  6  7  2  0
  7  8  1  0
  8  9  2  0
  9 10  1  0
 10 11  1  0
 11 12  1  0
 12 13  1  0
 13 14  1  0
 14 15  1  0
 15 16  1  0
 14 17  1  0
 17 18  1  0
 18 19  1  0
 19 20  1  0
 20 21  1  0
 21 22  1  0
 20 23  1  0
 23 24  1  0
 24 25  2  0
 24 26  1  0
 26 27  1  0
 27 28  2  0
 28 29  1  0
 29 30  2  0
 30 31  1  0
 31 32  2  0
  9  4  1  0
 16 11  1  0
 22 17  1  0
 32 23  1  0
 32 27  1  0
M  CHG  2   1  -1   2   1
M  END
>  <pIC50>  (167) 
5.95

>  <ChEMBL_ID>  (167) 
CHEMBL478034

>  <document_journal>  (167) 
Bioorg. Med. Chem. Lett.

>  <bao_endpoint>  (167) 
BAO_0000190

>  <potential_duplicate>  (167) 
False

>  <uo_units>  (167) 
UO_0000065

>  <canonical_smiles>  (167) 
[O-][N+](=O)c1ccccc1CN2CCC(CC2)N3CCC(CC3)N4C(=O)Nc5ccccc45

>  <parent_molecule_chembl_id>  (167) 
CHEMBL478034

>  <assay_type>  (167) 
B

>  <src_id>  (167) 
1

>  <ligand_efficiency>  (167) 
{u'le': u'0.25', u'bei': u'13.65', u'sei': u'7.03', u'lle': u'3.35'}

>  <standard_flag>  (167) 
True

>  <molecule_chembl_id>  (167) 
CHEMBL478034

>  <target_organism>  (167) 
Homo sapiens

>  <standard_units>  (167) 
nM

>  <record_id>  (167) 
772004

>  <document_chembl_id>  (167) 
CHEMBL1142444

>  <bao_format>  (167) 
BAO_0000357

>  <data_validity_description>  (167) 
None

>  <activity_id>  (167) 
2485636

>  <standard_type>  (167) 
IC50

>  <target_chembl_id>  (167) 
CHEMBL217

>  <data_validity_comment>  (167) 
None

>  <published_value>  (167) 
1.13

>  <document_year>  (167) 
2008

>  <target_pref_name>  (167) 
Dopamine D2 receptor

>  <assay_chembl_id>  (167) 
CHEMBL983581

>  <standard_relation>  (167) 
=

>  <assay_description>  (167) 
Inhibition of dopamine D2 receptor

>  <published_relation>  (167) 
=

>  <standard_value>  (167) 
1130

>  <qudt_units>  (167) 
http://www.openphacts.org/units/Nanomolar

>  <target_tax_id>  (167) 
9606

>  <bao_label>  (167) 
single protein format

>  <published_units>  (167) 
uM

>  <pchembl_value>  (167) 
5.95

>  <published_type>  (167) 
IC50

>  <activity_comment>  (167) 
None

$$$$

     RDKit          

 30 34  0  0  0  0  0  0  0  0999 V2000
    0.0000    0.0000    0.0000 Cl  0  0  0  0  0  0  0  0  0  0  0  0
    0.0000    0.0000    0.0000 C   0  0  0  0  0  0  0  0  0  0  0  0
    0.0000    0.0000    0.0000 C   0  0  0  0  0  0  0  0  0  0  0  0
    0.0000    0.0000    0.0000 C   0  0  0  0  0  0  0  0  0  0  0  0
    0.0000    0.0000    0.0000 C   0  0  0  0  0  0  0  0  0  0  0  0
    0.0000    0.0000    0.0000 C   0  0  0  0  0  0  0  0  0  0  0  0
    0.0000    0.0000    0.0000 C   0  0  0  0  0  0  0  0  0  0  0  0
    0.0000    0.0000    0.0000 C   0  0  0  0  0  0  0  0  0  0  0  0
    0.0000    0.0000    0.0000 N   0  0  0  0  0  0  0  0  0  0  0  0
    0.0000    0.0000    0.0000 C   0  0  0  0  0  0  0  0  0  0  0  0
    0.0000    0.0000    0.0000 C   0  0  0  0  0  0  0  0  0  0  0  0
    0.0000    0.0000    0.0000 C   0  0  0  0  0  0  0  0  0  0  0  0
    0.0000    0.0000    0.0000 C   0  0  0  0  0  0  0  0  0  0  0  0
    0.0000    0.0000    0.0000 C   0  0  0  0  0  0  0  0  0  0  0  0
    0.0000    0.0000    0.0000 N   0  0  0  0  0  0  0  0  0  0  0  0
    0.0000    0.0000    0.0000 C   0  0  0  0  0  0  0  0  0  0  0  0
    0.0000    0.0000    0.0000 C   0  0  0  0  0  0  0  0  0  0  0  0
    0.0000    0.0000    0.0000 C   0  0  0  0  0  0  0  0  0  0  0  0
    0.0000    0.0000    0.0000 C   0  0  0  0  0  0  0  0  0  0  0  0
    0.0000    0.0000    0.0000 C   0  0  0  0  0  0  0  0  0  0  0  0
    0.0000    0.0000    0.0000 N   0  0  0  0  0  0  0  0  0  0  0  0
    0.0000    0.0000    0.0000 C   0  0  0  0  0  0  0  0  0  0  0  0
    0.0000    0.0000    0.0000 O   0  0  0  0  0  0  0  0  0  0  0  0
    0.0000    0.0000    0.0000 N   0  0  0  0  0  0  0  0  0  0  0  0
    0.0000    0.0000    0.0000 C   0  0  0  0  0  0  0  0  0  0  0  0
    0.0000    0.0000    0.0000 C   0  0  0  0  0  0  0  0  0  0  0  0
    0.0000    0.0000    0.0000 C   0  0  0  0  0  0  0  0  0  0  0  0
    0.0000    0.0000    0.0000 C   0  0  0  0  0  0  0  0  0  0  0  0
    0.0000    0.0000    0.0000 C   0  0  0  0  0  0  0  0  0  0  0  0
    0.0000    0.0000    0.0000 C   0  0  0  0  0  0  0  0  0  0  0  0
  1  2  1  0
  2  3  2  0
  3  4  1  0
  4  5  2  0
  5  6  1  0
  6  7  2  0
  7  8  1  0
  8  9  1  0
  9 10  1  0
 10 11  1  0
 11 12  1  0
 12 13  1  0
 13 14  1  0
 12 15  1  0
 15 16  1  0
 16 17  1  0
 17 18  1  0
 18 19  1  0
 19 20  1  0
 18 21  1  0
 21 22  1  0
 22 23  2  0
 22 24  1  0
 24 25  1  0
 25 26  2  0
 26 27  1  0
 27 28  2  0
 28 29  1  0
 29 30  2  0
  7  2  1  0
 14  9  1  0
 20 15  1  0
 30 21  1  0
 30 25  1  0
M  END
>  <pIC50>  (168) 
5.69

>  <ChEMBL_ID>  (168) 
CHEMBL477821

>  <document_journal>  (168) 
Bioorg. Med. Chem. Lett.

>  <bao_endpoint>  (168) 
BAO_0000190

>  <potential_duplicate>  (168) 
False

>  <uo_units>  (168) 
UO_0000065

>  <canonical_smiles>  (168) 
Clc1ccccc1CN2CCC(CC2)N3CCC(CC3)N4C(=O)Nc5ccccc45

>  <parent_molecule_chembl_id>  (168) 
CHEMBL477821

>  <assay_type>  (168) 
B

>  <src_id>  (168) 
1

>  <ligand_efficiency>  (168) 
{u'le': u'0.26', u'bei': u'13.38', u'sei': u'14.65', u'lle': u'2.32'}

>  <standard_flag>  (168) 
True

>  <molecule_chembl_id>  (168) 
CHEMBL477821

>  <target_organism>  (168) 
Homo sapiens

>  <standard_units>  (168) 
nM

>  <record_id>  (168) 
771919

>  <document_chembl_id>  (168) 
CHEMBL1142444

>  <bao_format>  (168) 
BAO_0000357

>  <data_validity_description>  (168) 
None

>  <activity_id>  (168) 
2485638

>  <standard_type>  (168) 
IC50

>  <target_chembl_id>  (168) 
CHEMBL217

>  <data_validity_comment>  (168) 
None

>  <published_value>  (168) 
2.06

>  <document_year>  (168) 
2008

>  <target_pref_name>  (168) 
Dopamine D2 receptor

>  <assay_chembl_id>  (168) 
CHEMBL983581

>  <standard_relation>  (168) 
=

>  <assay_description>  (168) 
Inhibition of dopamine D2 receptor

>  <published_relation>  (168) 
=

>  <standard_value>  (168) 
2060

>  <qudt_units>  (168) 
http://www.openphacts.org/units/Nanomolar

>  <target_tax_id>  (168) 
9606

>  <bao_label>  (168) 
single protein format

>  <published_units>  (168) 
uM

>  <pchembl_value>  (168) 
5.69

>  <published_type>  (168) 
IC50

>  <activity_comment>  (168) 
None

$$$$

     RDKit          

 34 38  0  0  0  0  0  0  0  0999 V2000
    0.0000    0.0000    0.0000 F   0  0  0  0  0  0  0  0  0  0  0  0
    0.0000    0.0000    0.0000 C   0  0  0  0  0  0  0  0  0  0  0  0
    0.0000    0.0000    0.0000 C   0  0  0  0  0  0  0  0  0  0  0  0
    0.0000    0.0000    0.0000 C   0  0  0  0  0  0  0  0  0  0  0  0
    0.0000    0.0000    0.0000 C   0  0  0  0  0  0  0  0  0  0  0  0
    0.0000    0.0000    0.0000 N   0  0  0  0  0  0  0  0  0  0  0  0
    0.0000    0.0000    0.0000 C   0  0  0  0  0  0  0  0  0  0  0  0
    0.0000    0.0000    0.0000 C   0  0  0  0  0  0  0  0  0  0  0  0
    0.0000    0.0000    0.0000 C   0  0  0  0  0  0  0  0  0  0  0  0
    0.0000    0.0000    0.0000 N   0  0  0  0  0  0  0  0  0  0  0  0
    0.0000    0.0000    0.0000 C   0  0  0  0  0  0  0  0  0  0  0  0
    0.0000    0.0000    0.0000 C   0  0  0  0  0  0  0  0  0  0  0  0
    0.0000    0.0000    0.0000 C   0  0  0  0  0  0  0  0  0  0  0  0
    0.0000    0.0000    0.0000 C   0  0  0  0  0  0  0  0  0  0  0  0
    0.0000    0.0000    0.0000 C   0  0  0  0  0  0  0  0  0  0  0  0
    0.0000    0.0000    0.0000 N   0  0  0  0  0  0  0  0  0  0  0  0
    0.0000    0.0000    0.0000 C   0  0  0  0  0  0  0  0  0  0  0  0
    0.0000    0.0000    0.0000 C   0  0  0  0  0  0  0  0  0  0  0  0
    0.0000    0.0000    0.0000 C   0  0  0  0  0  0  0  0  0  0  0  0
    0.0000    0.0000    0.0000 C   0  0  0  0  0  0  0  0  0  0  0  0
    0.0000    0.0000    0.0000 C   0  0  0  0  0  0  0  0  0  0  0  0
    0.0000    0.0000    0.0000 C   0  0  0  0  0  0  0  0  0  0  0  0
    0.0000    0.0000    0.0000 C   0  0  0  0  0  0  0  0  0  0  0  0
    0.0000    0.0000    0.0000 C   0  0  0  0  0  0  0  0  0  0  0  0
    0.0000    0.0000    0.0000 F   0  0  0  0  0  0  0  0  0  0  0  0
    0.0000    0.0000    0.0000 F   0  0  0  0  0  0  0  0  0  0  0  0
    0.0000    0.0000    0.0000 F   0  0  0  0  0  0  0  0  0  0  0  0
    0.0000    0.0000    0.0000 C   0  0  0  0  0  0  0  0  0  0  0  0
    0.0000    0.0000    0.0000 C   0  0  0  0  0  0  0  0  0  0  0  0
    0.0000    0.0000    0.0000 C   0  0  0  0  0  0  0  0  0  0  0  0
    0.0000    0.0000    0.0000 O   0  0  0  0  0  0  0  0  0  0  0  0
    0.0000    0.0000    0.0000 N   0  0  0  0  0  0  0  0  0  0  0  0
    0.0000    0.0000    0.0000 C   0  0  0  0  0  0  0  0  0  0  0  0
    0.0000    0.0000    0.0000 C   0  0  0  0  0  0  0  0  0  0  0  0
  1  2  1  0
  2  3  2  0
  3  4  1  0
  4  5  2  0
  5  6  1  0
  6  7  1  0
  7  8  1  0
  8  9  1  0
  9 10  1  0
 10 11  1  0
 11 12  1  0
 10 13  1  0
 13 14  1  0
 14 15  1  0
 15 16  1  0
 16 17  1  0
 17 18  1  0
 18 19  2  0
 19 20  1  0
 20 21  2  0
 21 22  1  0
 22 23  2  0
 23 24  1  0
 24 25  1  0
 24 26  1  0
 24 27  1  0
 16 28  1  0
 28 29  1  0
  6 30  1  0
 30 31  2  0
 30 32  1  0
 32 33  1  0
 33 34  2  0
 34  2  1  0
 33  5  1  0
 12  7  1  0
 29 13  1  0
 23 18  1  0
M  END
>  <pIC50>  (169) 
5.57

>  <ChEMBL_ID>  (169) 
CHEMBL489576

>  <document_journal>  (169) 
Bioorg. Med. Chem. Lett.

>  <bao_endpoint>  (169) 
BAO_0000190

>  <potential_duplicate>  (169) 
False

>  <uo_units>  (169) 
UO_0000065

>  <canonical_smiles>  (169) 
Fc1ccc2N(C3CCN(CC3)C4CCN(Cc5ccccc5C(F)(F)F)CC4)C(=O)Nc2c1

>  <parent_molecule_chembl_id>  (169) 
CHEMBL489576

>  <assay_type>  (169) 
B

>  <src_id>  (169) 
1

>  <ligand_efficiency>  (169) 
{u'le': u'0.22', u'bei': u'11.69', u'sei': u'14.35', u'lle': u'1.72'}

>  <standard_flag>  (169) 
True

>  <molecule_chembl_id>  (169) 
CHEMBL489576

>  <target_organism>  (169) 
Homo sapiens

>  <standard_units>  (169) 
nM

>  <record_id>  (169) 
772878

>  <document_chembl_id>  (169) 
CHEMBL1142444

>  <bao_format>  (169) 
BAO_0000357

>  <data_validity_description>  (169) 
None

>  <activity_id>  (169) 
2485642

>  <standard_type>  (169) 
IC50

>  <target_chembl_id>  (169) 
CHEMBL217

>  <data_validity_comment>  (169) 
None

>  <published_value>  (169) 
2.69

>  <document_year>  (169) 
2008

>  <target_pref_name>  (169) 
Dopamine D2 receptor

>  <assay_chembl_id>  (169) 
CHEMBL983581

>  <standard_relation>  (169) 
=

>  <assay_description>  (169) 
Inhibition of dopamine D2 receptor

>  <published_relation>  (169) 
=

>  <standard_value>  (169) 
2690

>  <qudt_units>  (169) 
http://www.openphacts.org/units/Nanomolar

>  <target_tax_id>  (169) 
9606

>  <bao_label>  (169) 
single protein format

>  <published_units>  (169) 
uM

>  <pchembl_value>  (169) 
5.57

>  <published_type>  (169) 
IC50

>  <activity_comment>  (169) 
None

$$$$

     RDKit          

 46 51  0  0  0  0  0  0  0  0999 V2000
    0.0000    0.0000    0.0000 C   0  0  0  0  0  0  0  0  0  0  0  0
    0.0000    0.0000    0.0000 O   0  0  0  0  0  0  0  0  0  0  0  0
    0.0000    0.0000    0.0000 C   0  0  0  0  0  0  0  0  0  0  0  0
    0.0000    0.0000    0.0000 C   0  0  0  0  0  0  0  0  0  0  0  0
    0.0000    0.0000    0.0000 C   0  0  0  0  0  0  0  0  0  0  0  0
    0.0000    0.0000    0.0000 C   0  0  0  0  0  0  0  0  0  0  0  0
    0.0000    0.0000    0.0000 C   0  0  0  0  0  0  0  0  0  0  0  0
    0.0000    0.0000    0.0000 C   0  0  0  0  0  0  0  0  0  0  0  0
    0.0000    0.0000    0.0000 N   0  0  0  0  0  0  0  0  0  0  0  0
    0.0000    0.0000    0.0000 C   0  0  0  0  0  0  0  0  0  0  0  0
    0.0000    0.0000    0.0000 C   0  0  0  0  0  0  0  0  0  0  0  0
    0.0000    0.0000    0.0000 N   0  0  0  0  0  0  0  0  0  0  0  0
    0.0000    0.0000    0.0000 C   0  0  0  0  0  0  0  0  0  0  0  0
    0.0000    0.0000    0.0000 C   0  0  0  0  0  0  0  0  0  0  0  0
    0.0000    0.0000    0.0000 C   0  0  0  0  0  0  0  0  0  0  0  0
    0.0000    0.0000    0.0000 N   0  0  0  0  0  0  0  0  0  0  0  0
    0.0000    0.0000    0.0000 C   0  0  0  0  0  0  0  0  0  0  0  0
    0.0000    0.0000    0.0000 C   0  0  0  0  0  0  0  0  0  0  0  0
    0.0000    0.0000    0.0000 C   0  0  0  0  0  0  0  0  0  0  0  0
    0.0000    0.0000    0.0000 C   0  0  0  0  0  0  0  0  0  0  0  0
    0.0000    0.0000    0.0000 C   0  0  0  0  0  0  0  0  0  0  0  0
    0.0000    0.0000    0.0000 C   0  0  0  0  0  0  0  0  0  0  0  0
    0.0000    0.0000    0.0000 N   0  0  0  0  0  0  0  0  0  0  0  0
    0.0000    0.0000    0.0000 C   0  0  0  0  0  0  0  0  0  0  0  0
    0.0000    0.0000    0.0000 C   0  0  0  0  0  0  0  0  0  0  0  0
    0.0000    0.0000    0.0000 C   0  0  0  0  0  0  0  0  0  0  0  0
    0.0000    0.0000    0.0000 C   0  0  0  0  0  0  0  0  0  0  0  0
    0.0000    0.0000    0.0000 C   0  0  0  0  0  0  0  0  0  0  0  0
    0.0000    0.0000    0.0000 O   0  0  0  0  0  0  0  0  0  0  0  0
    0.0000    0.0000    0.0000 C   0  0  0  0  0  0  0  0  0  0  0  0
    0.0000    0.0000    0.0000 O   0  0  0  0  0  0  0  0  0  0  0  0
    0.0000    0.0000    0.0000 C   0  0  0  0  0  0  0  0  0  0  0  0
    0.0000    0.0000    0.0000 C   0  0  0  0  0  0  0  0  0  0  0  0
    0.0000    0.0000    0.0000 C   0  0  0  0  0  0  0  0  0  0  0  0
    0.0000    0.0000    0.0000 C   0  0  0  0  0  0  0  0  0  0  0  0
    0.0000    0.0000    0.0000 C   0  0  0  0  0  0  0  0  0  0  0  0
    0.0000    0.0000    0.0000 C   0  0  0  0  0  0  0  0  0  0  0  0
    0.0000    0.0000    0.0000 C   0  0  0  0  0  0  0  0  0  0  0  0
    0.0000    0.0000    0.0000 C   0  0  0  0  0  0  0  0  0  0  0  0
    0.0000    0.0000    0.0000 C   0  0  0  0  0  0  0  0  0  0  0  0
    0.0000    0.0000    0.0000 C   0  0  0  0  0  0  0  0  0  0  0  0
    0.0000    0.0000    0.0000 C   0  0  0  0  0  0  0  0  0  0  0  0
    0.0000    0.0000    0.0000 N   0  0  0  0  0  0  0  0  0  0  0  0
    0.0000    0.0000    0.0000 N   0  0  0  0  0  0  0  0  0  0  0  0
    0.0000    0.0000    0.0000 C   0  0  0  0  0  0  0  0  0  0  0  0
    0.0000    0.0000    0.0000 C   0  0  0  0  0  0  0  0  0  0  0  0
  1  2  1  0
  2  3  1  0
  3  4  2  0
  4  5  1  0
  5  6  2  0
  6  7  1  0
  7  8  2  0
  8  9  1  0
  9 10  1  0
 10 11  1  0
 11 12  1  0
 12 13  1  0
 13 14  1  0
 14 15  1  0
 15 16  1  0
 16 17  1  0
 17 18  2  0
 18 19  1  0
 19 20  1  0
 20 21  1  0
 21 22  1  0
 22 23  1  0
 23 24  1  0
 24 25  1  0
 25 26  1  0
 26 27  2  0
 27 28  1  0
 28 29  1  0
 28 30  2  0
 30 31  1  0
 30 32  1  0
 32 33  2  0
 33 34  1  0
 34 35  1  0
 34 36  1  0
 36 37  2  0
 37 38  1  0
 38 39  2  0
 39 40  1  0
 40 41  1  0
 40 42  2  0
 18 43  1  0
 43 44  2  0
 12 45  1  0
 45 46  1  0
  8  3  1  0
 46  9  1  0
 44 16  1  0
 35 23  1  0
 33 26  1  0
 42 36  1  0
M  END
>  <pIC50>  (170) 
5.8

>  <ChEMBL_ID>  (170) 
CHEMBL582945

>  <document_journal>  (170) 
Bioorg. Med. Chem.

>  <bao_endpoint>  (170) 
BAO_0000190

>  <potential_duplicate>  (170) 
False

>  <uo_units>  (170) 
UO_0000065

>  <canonical_smiles>  (170) 
COc1ccccc1N2CCN(CCCn3cc(CCCCN4CCc5cc(O)c(O)cc5C(C4)c6cccc(C)c6)nn3)CC2

>  <parent_molecule_chembl_id>  (170) 
CHEMBL582945

>  <assay_type>  (170) 
F

>  <src_id>  (170) 
1

>  <ligand_efficiency>  (170) 
None

>  <standard_flag>  (170) 
True

>  <molecule_chembl_id>  (170) 
CHEMBL582945

>  <target_organism>  (170) 
Homo sapiens

>  <standard_units>  (170) 
nM

>  <record_id>  (170) 
846583

>  <document_chembl_id>  (170) 
CHEMBL1154108

>  <bao_format>  (170) 
BAO_0000219

>  <data_validity_description>  (170) 
None

>  <activity_id>  (170) 
2912690

>  <standard_type>  (170) 
IC50

>  <target_chembl_id>  (170) 
CHEMBL217

>  <data_validity_comment>  (170) 
None

>  <published_value>  (170) 
1.57

>  <document_year>  (170) 
2009

>  <target_pref_name>  (170) 
Dopamine D2 receptor

>  <assay_chembl_id>  (170) 
CHEMBL1044818

>  <standard_relation>  (170) 
=

>  <assay_description>  (170) 
Antagonist activity at dopamine D2 receptor expressed in HEK293 cells by by [35S]GTPgammaS binding assay in presence of quinpirole

>  <published_relation>  (170) 
=

>  <standard_value>  (170) 
1570

>  <qudt_units>  (170) 
http://www.openphacts.org/units/Nanomolar

>  <target_tax_id>  (170) 
9606

>  <bao_label>  (170) 
cell-based format

>  <published_units>  (170) 
uM

>  <pchembl_value>  (170) 
5.8

>  <published_type>  (170) 
IC50

>  <activity_comment>  (170) 
None

$$$$

     RDKit          

 45 50  0  0  0  0  0  0  0  0999 V2000
    0.0000    0.0000    0.0000 C   0  0  0  0  0  0  0  0  0  0  0  0
    0.0000    0.0000    0.0000 O   0  0  0  0  0  0  0  0  0  0  0  0
    0.0000    0.0000    0.0000 C   0  0  0  0  0  0  0  0  0  0  0  0
    0.0000    0.0000    0.0000 C   0  0  0  0  0  0  0  0  0  0  0  0
    0.0000    0.0000    0.0000 C   0  0  0  0  0  0  0  0  0  0  0  0
    0.0000    0.0000    0.0000 C   0  0  0  0  0  0  0  0  0  0  0  0
    0.0000    0.0000    0.0000 C   0  0  0  0  0  0  0  0  0  0  0  0
    0.0000    0.0000    0.0000 C   0  0  0  0  0  0  0  0  0  0  0  0
    0.0000    0.0000    0.0000 N   0  0  0  0  0  0  0  0  0  0  0  0
    0.0000    0.0000    0.0000 C   0  0  0  0  0  0  0  0  0  0  0  0
    0.0000    0.0000    0.0000 C   0  0  0  0  0  0  0  0  0  0  0  0
    0.0000    0.0000    0.0000 N   0  0  0  0  0  0  0  0  0  0  0  0
    0.0000    0.0000    0.0000 C   0  0  0  0  0  0  0  0  0  0  0  0
    0.0000    0.0000    0.0000 C   0  0  0  0  0  0  0  0  0  0  0  0
    0.0000    0.0000    0.0000 C   0  0  0  0  0  0  0  0  0  0  0  0
    0.0000    0.0000    0.0000 C   0  0  0  0  0  0  0  0  0  0  0  0
    0.0000    0.0000    0.0000 C   0  0  0  0  0  0  0  0  0  0  0  0
    0.0000    0.0000    0.0000 N   0  0  0  0  0  0  0  0  0  0  0  0
    0.0000    0.0000    0.0000 C   0  0  0  0  0  0  0  0  0  0  0  0
    0.0000    0.0000    0.0000 C   0  0  0  0  0  0  0  0  0  0  0  0
    0.0000    0.0000    0.0000 C   0  0  0  0  0  0  0  0  0  0  0  0
    0.0000    0.0000    0.0000 N   0  0  0  0  0  0  0  0  0  0  0  0
    0.0000    0.0000    0.0000 C   0  0  0  0  0  0  0  0  0  0  0  0
    0.0000    0.0000    0.0000 C   0  0  0  0  0  0  0  0  0  0  0  0
    0.0000    0.0000    0.0000 C   0  0  0  0  0  0  0  0  0  0  0  0
    0.0000    0.0000    0.0000 C   0  0  0  0  0  0  0  0  0  0  0  0
    0.0000    0.0000    0.0000 C   0  0  0  0  0  0  0  0  0  0  0  0
    0.0000    0.0000    0.0000 O   0  0  0  0  0  0  0  0  0  0  0  0
    0.0000    0.0000    0.0000 C   0  0  0  0  0  0  0  0  0  0  0  0
    0.0000    0.0000    0.0000 O   0  0  0  0  0  0  0  0  0  0  0  0
    0.0000    0.0000    0.0000 C   0  0  0  0  0  0  0  0  0  0  0  0
    0.0000    0.0000    0.0000 C   0  0  0  0  0  0  0  0  0  0  0  0
    0.0000    0.0000    0.0000 C   0  0  0  0  0  0  0  0  0  0  0  0
    0.0000    0.0000    0.0000 C   0  0  0  0  0  0  0  0  0  0  0  0
    0.0000    0.0000    0.0000 C   0  0  0  0  0  0  0  0  0  0  0  0
    0.0000    0.0000    0.0000 C   0  0  0  0  0  0  0  0  0  0  0  0
    0.0000    0.0000    0.0000 C   0  0  0  0  0  0  0  0  0  0  0  0
    0.0000    0.0000    0.0000 C   0  0  0  0  0  0  0  0  0  0  0  0
    0.0000    0.0000    0.0000 C   0  0  0  0  0  0  0  0  0  0  0  0
    0.0000    0.0000    0.0000 C   0  0  0  0  0  0  0  0  0  0  0  0
    0.0000    0.0000    0.0000 C   0  0  0  0  0  0  0  0  0  0  0  0
    0.0000    0.0000    0.0000 N   0  0  0  0  0  0  0  0  0  0  0  0
    0.0000    0.0000    0.0000 N   0  0  0  0  0  0  0  0  0  0  0  0
    0.0000    0.0000    0.0000 C   0  0  0  0  0  0  0  0  0  0  0  0
    0.0000    0.0000    0.0000 C   0  0  0  0  0  0  0  0  0  0  0  0
  1  2  1  0
  2  3  1  0
  3  4  2  0
  4  5  1  0
  5  6  2  0
  6  7  1  0
  7  8  2  0
  8  9  1  0
  9 10  1  0
 10 11  1  0
 11 12  1  0
 12 13  1  0
 13 14  1  0
 14 15  1  0
 15 16  1  0
 16 17  2  0
 17 18  1  0
 18 19  1  0
 19 20  1  0
 20 21  1  0
 21 22  1  0
 22 23  1  0
 23 24  1  0
 24 25  1  0
 25 26  2  0
 26 27  1  0
 27 28  1  0
 27 29  2  0
 29 30  1  0
 29 31  1  0
 31 32  2  0
 32 33  1  0
 33 34  1  0
 33 35  1  0
 35 36  2  0
 36 37  1  0
 37 38  2  0
 38 39  1  0
 39 40  2  0
 40 41  1  0
 18 42  1  0
 42 43  2  0
 12 44  1  0
 44 45  1  0
  8  3  1  0
 45  9  1  0
 43 16  1  0
 34 22  1  0
 32 25  1  0
 40 35  1  0
M  END
>  <pIC50>  (171) 
6.32

>  <ChEMBL_ID>  (171) 
CHEMBL574700

>  <document_journal>  (171) 
Bioorg. Med. Chem.

>  <bao_endpoint>  (171) 
BAO_0000190

>  <potential_duplicate>  (171) 
False

>  <uo_units>  (171) 
UO_0000065

>  <canonical_smiles>  (171) 
COc1ccccc1N2CCN(CCCc3cn(CCCN4CCc5cc(O)c(O)cc5C(C4)c6ccccc6C)nn3)CC2

>  <parent_molecule_chembl_id>  (171) 
CHEMBL574700

>  <assay_type>  (171) 
F

>  <src_id>  (171) 
1

>  <ligand_efficiency>  (171) 
None

>  <standard_flag>  (171) 
True

>  <molecule_chembl_id>  (171) 
CHEMBL574700

>  <target_organism>  (171) 
Homo sapiens

>  <standard_units>  (171) 
nM

>  <record_id>  (171) 
846584

>  <document_chembl_id>  (171) 
CHEMBL1154108

>  <bao_format>  (171) 
BAO_0000219

>  <data_validity_description>  (171) 
None

>  <activity_id>  (171) 
2912692

>  <standard_type>  (171) 
IC50

>  <target_chembl_id>  (171) 
CHEMBL217

>  <data_validity_comment>  (171) 
None

>  <published_value>  (171) 
480

>  <document_year>  (171) 
2009

>  <target_pref_name>  (171) 
Dopamine D2 receptor

>  <assay_chembl_id>  (171) 
CHEMBL1044818

>  <standard_relation>  (171) 
=

>  <assay_description>  (171) 
Antagonist activity at dopamine D2 receptor expressed in HEK293 cells by by [35S]GTPgammaS binding assay in presence of quinpirole

>  <published_relation>  (171) 
=

>  <standard_value>  (171) 
480

>  <qudt_units>  (171) 
http://www.openphacts.org/units/Nanomolar

>  <target_tax_id>  (171) 
9606

>  <bao_label>  (171) 
cell-based format

>  <published_units>  (171) 
nM

>  <pchembl_value>  (171) 
6.32

>  <published_type>  (171) 
IC50

>  <activity_comment>  (171) 
None

$$$$

     RDKit          

 32 36  0  0  0  0  0  0  0  0999 V2000
    0.0000    0.0000    0.0000 C   0  0  0  0  0  0  0  0  0  0  0  0
    0.0000    0.0000    0.0000 C   0  0  0  0  0  0  0  0  0  0  0  0
    0.0000    0.0000    0.0000 N   0  0  0  0  0  0  0  0  0  0  0  0
    0.0000    0.0000    0.0000 C   0  0  0  0  0  0  0  0  0  0  0  0
    0.0000    0.0000    0.0000 C   0  0  0  0  0  0  0  0  0  0  0  0
    0.0000    0.0000    0.0000 C   0  0  0  0  0  0  0  0  0  0  0  0
    0.0000    0.0000    0.0000 O   0  0  0  0  0  0  0  0  0  0  0  0
    0.0000    0.0000    0.0000 C   0  0  0  0  0  0  0  0  0  0  0  0
    0.0000    0.0000    0.0000 C   0  0  0  0  0  0  0  0  0  0  0  0
    0.0000    0.0000    0.0000 N   0  0  0  0  0  0  0  0  0  0  0  0
    0.0000    0.0000    0.0000 C   0  0  0  0  0  0  0  0  0  0  0  0
    0.0000    0.0000    0.0000 C   0  0  0  0  0  0  0  0  0  0  0  0
    0.0000    0.0000    0.0000 C   0  0  0  0  0  0  0  0  0  0  0  0
    0.0000    0.0000    0.0000 C   0  0  0  0  0  0  0  0  0  0  0  0
    0.0000    0.0000    0.0000 N   0  0  0  0  0  0  0  0  0  0  0  0
    0.0000    0.0000    0.0000 C   0  0  0  0  0  0  0  0  0  0  0  0
    0.0000    0.0000    0.0000 C   0  0  0  0  0  0  0  0  0  0  0  0
    0.0000    0.0000    0.0000 C   0  0  0  0  0  0  0  0  0  0  0  0
    0.0000    0.0000    0.0000 C   0  0  0  0  0  0  0  0  0  0  0  0
    0.0000    0.0000    0.0000 C   0  0  0  0  0  0  0  0  0  0  0  0
    0.0000    0.0000    0.0000 C   0  0  0  0  0  0  0  0  0  0  0  0
    0.0000    0.0000    0.0000 C   0  0  0  0  0  0  0  0  0  0  0  0
    0.0000    0.0000    0.0000 C   0  0  0  0  0  0  0  0  0  0  0  0
    0.0000    0.0000    0.0000 C   0  0  0  0  0  0  0  0  0  0  0  0
    0.0000    0.0000    0.0000 O   0  0  0  0  0  0  0  0  0  0  0  0
    0.0000    0.0000    0.0000 N   0  0  0  0  0  0  0  0  0  0  0  0
    0.0000    0.0000    0.0000 C   0  0  0  0  0  0  0  0  0  0  0  0
    0.0000    0.0000    0.0000 C   0  0  0  0  0  0  0  0  0  0  0  0
    0.0000    0.0000    0.0000 C   0  0  0  0  0  0  0  0  0  0  0  0
    0.0000    0.0000    0.0000 C   0  0  0  0  0  0  0  0  0  0  0  0
    0.0000    0.0000    0.0000 C   0  0  0  0  0  0  0  0  0  0  0  0
    0.0000    0.0000    0.0000 C   0  0  0  0  0  0  0  0  0  0  0  0
  1  2  1  0
  2  3  1  0
  3  4  1  0
  4  5  1  0
  3  6  1  0
  6  7  2  0
  6  8  1  0
  8  9  1  0
  9 10  1  0
 10 11  1  0
 11 12  1  0
 12 13  1  0
 13 14  2  0
 14 15  1  0
 15 16  1  0
 16 17  2  0
 17 18  1  0
 18 19  2  0
 19 20  1  0
 20 21  1  0
 21 22  2  0
 20 23  2  0
 10 24  1  0
 24 25  2  0
 24 26  1  0
 26 27  1  0
 27 28  2  0
 28 29  1  0
 29 30  2  0
 30 31  1  0
 31 32  2  0
 22  8  1  0
 21 11  1  0
 23 13  1  0
 23 16  1  0
 32 27  1  0
M  END
>  <pIC50>  (172) 
5.8

>  <ChEMBL_ID>  (172) 
CHEMBL584554

>  <document_journal>  (172) 
Bioorg. Med. Chem. Lett.

>  <bao_endpoint>  (172) 
BAO_0000190

>  <potential_duplicate>  (172) 
False

>  <uo_units>  (172) 
UO_0000065

>  <canonical_smiles>  (172) 
CCN(CC)C(=O)[C@H]1CN([C@@H]2Cc3c[nH]c4cccc(C2=C1)c34)C(=O)Nc5ccccc5

>  <parent_molecule_chembl_id>  (172) 
CHEMBL584554

>  <assay_type>  (172) 
B

>  <src_id>  (172) 
1

>  <ligand_efficiency>  (172) 
{u'le': u'0.25', u'bei': u'13.53', u'sei': u'8.47', u'lle': u'2.36'}

>  <standard_flag>  (172) 
True

>  <molecule_chembl_id>  (172) 
CHEMBL584554

>  <target_organism>  (172) 
Homo sapiens

>  <standard_units>  (172) 
nM

>  <record_id>  (172) 
848803

>  <document_chembl_id>  (172) 
CHEMBL1154177

>  <bao_format>  (172) 
BAO_0000357

>  <data_validity_description>  (172) 
None

>  <activity_id>  (172) 
2927566

>  <standard_type>  (172) 
IC50

>  <target_chembl_id>  (172) 
CHEMBL217

>  <data_validity_comment>  (172) 
None

>  <published_value>  (172) 
1590

>  <document_year>  (172) 
2009

>  <target_pref_name>  (172) 
Dopamine D2 receptor

>  <assay_chembl_id>  (172) 
CHEMBL1046708

>  <standard_relation>  (172) 
=

>  <assay_description>  (172) 
Inhibition of dopamine D2 receptor

>  <published_relation>  (172) 
=

>  <standard_value>  (172) 
1590

>  <qudt_units>  (172) 
http://www.openphacts.org/units/Nanomolar

>  <target_tax_id>  (172) 
9606

>  <bao_label>  (172) 
single protein format

>  <published_units>  (172) 
nM

>  <pchembl_value>  (172) 
5.8

>  <published_type>  (172) 
IC50

>  <activity_comment>  (172) 
None

$$$$

     RDKit          

 32 35  0  0  0  0  0  0  0  0999 V2000
    0.0000    0.0000    0.0000 C   0  0  0  0  0  0  0  0  0  0  0  0
    0.0000    0.0000    0.0000 C   0  0  0  0  0  0  0  0  0  0  0  0
    0.0000    0.0000    0.0000 N   0  0  0  0  0  0  0  0  0  0  0  0
    0.0000    0.0000    0.0000 C   0  0  0  0  0  0  0  0  0  0  0  0
    0.0000    0.0000    0.0000 C   0  0  0  0  0  0  0  0  0  0  0  0
    0.0000    0.0000    0.0000 C   0  0  0  0  0  0  0  0  0  0  0  0
    0.0000    0.0000    0.0000 C   0  0  0  0  0  0  0  0  0  0  0  0
    0.0000    0.0000    0.0000 O   0  0  0  0  0  0  0  0  0  0  0  0
    0.0000    0.0000    0.0000 N   0  0  0  0  0  0  0  0  0  0  0  0
    0.0000    0.0000    0.0000 C   0  0  0  0  0  0  0  0  0  0  0  0
    0.0000    0.0000    0.0000 C   0  0  0  0  0  0  0  0  0  0  0  0
    0.0000    0.0000    0.0000 C   0  0  0  0  0  0  0  0  0  0  0  0
    0.0000    0.0000    0.0000 N   0  0  0  0  0  0  0  0  0  0  0  0
    0.0000    0.0000    0.0000 C   0  0  0  0  0  0  0  0  0  0  0  0
    0.0000    0.0000    0.0000 C   0  0  0  0  0  0  0  0  0  0  0  0
    0.0000    0.0000    0.0000 N   0  0  0  0  0  0  0  0  0  0  0  0
    0.0000    0.0000    0.0000 C   0  0  0  0  0  0  0  0  0  0  0  0
    0.0000    0.0000    0.0000 C   0  0  0  0  0  0  0  0  0  0  0  0
    0.0000    0.0000    0.0000 C   0  0  0  0  0  0  0  0  0  0  0  0
    0.0000    0.0000    0.0000 C   0  0  0  0  0  0  0  0  0  0  0  0
    0.0000    0.0000    0.0000 C   0  0  0  0  0  0  0  0  0  0  0  0
    0.0000    0.0000    0.0000 C   0  0  0  0  0  0  0  0  0  0  0  0
    0.0000    0.0000    0.0000 C   0  0  0  0  0  0  0  0  0  0  0  0
    0.0000    0.0000    0.0000 Cl  0  0  0  0  0  0  0  0  0  0  0  0
    0.0000    0.0000    0.0000 C   0  0  0  0  0  0  0  0  0  0  0  0
    0.0000    0.0000    0.0000 Cl  0  0  0  0  0  0  0  0  0  0  0  0
    0.0000    0.0000    0.0000 C   0  0  0  0  0  0  0  0  0  0  0  0
    0.0000    0.0000    0.0000 C   0  0  0  0  0  0  0  0  0  0  0  0
    0.0000    0.0000    0.0000 C   0  0  0  0  0  0  0  0  0  0  0  0
    0.0000    0.0000    0.0000 C   0  0  0  0  0  0  0  0  0  0  0  0
    0.0000    0.0000    0.0000 C   0  0  0  0  0  0  0  0  0  0  0  0
    0.0000    0.0000    0.0000 C   0  0  0  0  0  0  0  0  0  0  0  0
  1  2  1  0
  2  3  1  0
  3  4  1  0
  4  5  2  0
  5  6  1  0
  6  7  1  0
  7  8  2  0
  7  9  1  0
  9 10  1  0
 10 11  1  0
 11 12  1  0
 12 13  1  0
 13 14  1  0
 14 15  1  0
 15 16  1  0
 16 17  1  0
 17 18  1  0
 16 19  1  0
 19 20  2  0
 20 21  1  0
 21 22  2  0
 22 23  1  0
 23 24  1  0
 23 25  2  0
 25 26  1  0
  4 27  1  0
 27 28  2  0
 28 29  1  0
 29 30  2  0
 30 31  1  0
 31 32  2  0
  6  2  2  0
 18 13  1  0
 25 19  1  0
 32 27  1  0
M  END
>  <pIC50>  (173) 
5.97

>  <ChEMBL_ID>  (173) 
CHEMBL1086626

>  <document_journal>  (173) 
Bioorg. Med. Chem. Lett.

>  <bao_endpoint>  (173) 
BAO_0000190

>  <potential_duplicate>  (173) 
False

>  <uo_units>  (173) 
UO_0000065

>  <canonical_smiles>  (173) 
Cc1[nH]c(cc1C(=O)NCCCN2CCN(CC2)c3cccc(Cl)c3Cl)c4ccccc4

>  <parent_molecule_chembl_id>  (173) 
CHEMBL1086626

>  <assay_type>  (173) 
B

>  <src_id>  (173) 
1

>  <ligand_efficiency>  (173) 
{u'le': u'0.25', u'bei': u'12.66', u'sei': u'11.62', u'lle': u'0.72'}

>  <standard_flag>  (173) 
True

>  <molecule_chembl_id>  (173) 
CHEMBL1086626

>  <target_organism>  (173) 
Homo sapiens

>  <standard_units>  (173) 
nM

>  <record_id>  (173) 
892907

>  <document_chembl_id>  (173) 
CHEMBL1154983

>  <bao_format>  (173) 
BAO_0000357

>  <data_validity_description>  (173) 
None

>  <activity_id>  (173) 
3189929

>  <standard_type>  (173) 
IC50

>  <target_chembl_id>  (173) 
CHEMBL217

>  <data_validity_comment>  (173) 
None

>  <published_value>  (173) 
1071

>  <document_year>  (173) 
2010

>  <target_pref_name>  (173) 
Dopamine D2 receptor

>  <assay_chembl_id>  (173) 
CHEMBL1101348

>  <standard_relation>  (173) 
=

>  <assay_description>  (173) 
Inhibition of dopamine D2 receptor

>  <published_relation>  (173) 
=

>  <standard_value>  (173) 
1071

>  <qudt_units>  (173) 
http://www.openphacts.org/units/Nanomolar

>  <target_tax_id>  (173) 
9606

>  <bao_label>  (173) 
single protein format

>  <published_units>  (173) 
nM

>  <pchembl_value>  (173) 
5.97

>  <published_type>  (173) 
IC50

>  <activity_comment>  (173) 
None

$$$$

     RDKit          

 33 36  0  0  0  0  0  0  0  0999 V2000
    0.0000    0.0000    0.0000 C   0  0  0  0  0  0  0  0  0  0  0  0
    0.0000    0.0000    0.0000 C   0  0  0  0  0  0  0  0  0  0  0  0
    0.0000    0.0000    0.0000 C   0  0  0  0  0  0  0  0  0  0  0  0
    0.0000    0.0000    0.0000 C   0  0  0  0  0  0  0  0  0  0  0  0
    0.0000    0.0000    0.0000 C   0  0  0  0  0  0  0  0  0  0  0  0
    0.0000    0.0000    0.0000 C   0  0  0  0  0  0  0  0  0  0  0  0
    0.0000    0.0000    0.0000 C   0  0  0  0  0  0  0  0  0  0  0  0
    0.0000    0.0000    0.0000 C   0  0  0  0  0  0  0  0  0  0  0  0
    0.0000    0.0000    0.0000 C   0  0  0  0  0  0  0  0  0  0  0  0
    0.0000    0.0000    0.0000 C   0  0  0  0  0  0  0  0  0  0  0  0
    0.0000    0.0000    0.0000 C   0  0  0  0  0  0  0  0  0  0  0  0
    0.0000    0.0000    0.0000 N   0  0  0  0  0  0  0  0  0  0  0  0
    0.0000    0.0000    0.0000 C   0  0  0  0  0  0  0  0  0  0  0  0
    0.0000    0.0000    0.0000 C   0  0  0  0  0  0  0  0  0  0  0  0
    0.0000    0.0000    0.0000 O   0  0  0  0  0  0  0  0  0  0  0  0
    0.0000    0.0000    0.0000 N   0  0  0  0  0  0  0  0  0  0  0  0
    0.0000    0.0000    0.0000 C   0  0  0  0  0  0  0  0  0  0  0  0
    0.0000    0.0000    0.0000 C   0  0  0  0  0  0  0  0  0  0  0  0
    0.0000    0.0000    0.0000 C   0  0  0  0  0  0  0  0  0  0  0  0
    0.0000    0.0000    0.0000 N   0  0  0  0  0  0  0  0  0  0  0  0
    0.0000    0.0000    0.0000 C   0  0  0  0  0  0  0  0  0  0  0  0
    0.0000    0.0000    0.0000 C   0  0  0  0  0  0  0  0  0  0  0  0
    0.0000    0.0000    0.0000 N   0  0  0  0  0  0  0  0  0  0  0  0
    0.0000    0.0000    0.0000 C   0  0  0  0  0  0  0  0  0  0  0  0
    0.0000    0.0000    0.0000 C   0  0  0  0  0  0  0  0  0  0  0  0
    0.0000    0.0000    0.0000 C   0  0  0  0  0  0  0  0  0  0  0  0
    0.0000    0.0000    0.0000 C   0  0  0  0  0  0  0  0  0  0  0  0
    0.0000    0.0000    0.0000 C   0  0  0  0  0  0  0  0  0  0  0  0
    0.0000    0.0000    0.0000 C   0  0  0  0  0  0  0  0  0  0  0  0
    0.0000    0.0000    0.0000 C   0  0  0  0  0  0  0  0  0  0  0  0
    0.0000    0.0000    0.0000 Cl  0  0  0  0  0  0  0  0  0  0  0  0
    0.0000    0.0000    0.0000 C   0  0  0  0  0  0  0  0  0  0  0  0
    0.0000    0.0000    0.0000 Cl  0  0  0  0  0  0  0  0  0  0  0  0
  1  2  1  0
  2  3  2  0
  3  4  1  0
  4  5  2  0
  5  6  1  0
  6  7  2  0
  7  8  1  0
  8  9  2  0
  9 10  1  0
 10 11  2  0
  5 12  1  0
 12 13  1  0
  3 14  1  0
 14 15  2  0
 14 16  1  0
 16 17  1  0
 17 18  1  0
 18 19  1  0
 19 20  1  0
 20 21  1  0
 21 22  1  0
 22 23  1  0
 23 24  1  0
 24 25  1  0
 23 26  1  0
 26 27  2  0
 27 28  1  0
 28 29  2  0
 29 30  1  0
 30 31  1  0
 30 32  2  0
 32 33  1  0
 12  2  1  0
 11  6  1  0
 25 20  1  0
 32 26  1  0
M  END
>  <pIC50>  (174) 
5.6

>  <ChEMBL_ID>  (174) 
CHEMBL1086754

>  <document_journal>  (174) 
Bioorg. Med. Chem. Lett.

>  <bao_endpoint>  (174) 
BAO_0000190

>  <potential_duplicate>  (174) 
False

>  <uo_units>  (174) 
UO_0000065

>  <canonical_smiles>  (174) 
Cc1c(cc(c2ccccc2)n1C)C(=O)NCCCN3CCN(CC3)c4cccc(Cl)c4Cl

>  <parent_molecule_chembl_id>  (174) 
CHEMBL1086754

>  <assay_type>  (174) 
B

>  <src_id>  (174) 
1

>  <ligand_efficiency>  (174) 
{u'le': u'0.23', u'bei': u'11.53', u'sei': u'13.81', u'lle': u'0.14'}

>  <standard_flag>  (174) 
True

>  <molecule_chembl_id>  (174) 
CHEMBL1086754

>  <target_organism>  (174) 
Homo sapiens

>  <standard_units>  (174) 
nM

>  <record_id>  (174) 
892908

>  <document_chembl_id>  (174) 
CHEMBL1154983

>  <bao_format>  (174) 
BAO_0000357

>  <data_validity_description>  (174) 
None

>  <activity_id>  (174) 
3189930

>  <standard_type>  (174) 
IC50

>  <target_chembl_id>  (174) 
CHEMBL217

>  <data_validity_comment>  (174) 
None

>  <published_value>  (174) 
2542

>  <document_year>  (174) 
2010

>  <target_pref_name>  (174) 
Dopamine D2 receptor

>  <assay_chembl_id>  (174) 
CHEMBL1101348

>  <standard_relation>  (174) 
=

>  <assay_description>  (174) 
Inhibition of dopamine D2 receptor

>  <published_relation>  (174) 
=

>  <standard_value>  (174) 
2542

>  <qudt_units>  (174) 
http://www.openphacts.org/units/Nanomolar

>  <target_tax_id>  (174) 
9606

>  <bao_label>  (174) 
single protein format

>  <published_units>  (174) 
nM

>  <pchembl_value>  (174) 
5.6

>  <published_type>  (174) 
IC50

>  <activity_comment>  (174) 
None

$$$$

     RDKit          

 35 38  0  0  0  0  0  0  0  0999 V2000
    0.0000    0.0000    0.0000 C   0  0  0  0  0  0  0  0  0  0  0  0
    0.0000    0.0000    0.0000 C   0  0  0  0  0  0  0  0  0  0  0  0
    0.0000    0.0000    0.0000 C   0  0  0  0  0  0  0  0  0  0  0  0
    0.0000    0.0000    0.0000 N   0  0  0  0  0  0  0  0  0  0  0  0
    0.0000    0.0000    0.0000 C   0  0  0  0  0  0  0  0  0  0  0  0
    0.0000    0.0000    0.0000 C   0  0  0  0  0  0  0  0  0  0  0  0
    0.0000    0.0000    0.0000 C   0  0  0  0  0  0  0  0  0  0  0  0
    0.0000    0.0000    0.0000 C   0  0  0  0  0  0  0  0  0  0  0  0
    0.0000    0.0000    0.0000 C   0  0  0  0  0  0  0  0  0  0  0  0
    0.0000    0.0000    0.0000 C   0  0  0  0  0  0  0  0  0  0  0  0
    0.0000    0.0000    0.0000 C   0  0  0  0  0  0  0  0  0  0  0  0
    0.0000    0.0000    0.0000 C   0  0  0  0  0  0  0  0  0  0  0  0
    0.0000    0.0000    0.0000 C   0  0  0  0  0  0  0  0  0  0  0  0
    0.0000    0.0000    0.0000 C   0  0  0  0  0  0  0  0  0  0  0  0
    0.0000    0.0000    0.0000 C   0  0  0  0  0  0  0  0  0  0  0  0
    0.0000    0.0000    0.0000 C   0  0  0  0  0  0  0  0  0  0  0  0
    0.0000    0.0000    0.0000 O   0  0  0  0  0  0  0  0  0  0  0  0
    0.0000    0.0000    0.0000 N   0  0  0  0  0  0  0  0  0  0  0  0
    0.0000    0.0000    0.0000 C   0  0  0  0  0  0  0  0  0  0  0  0
    0.0000    0.0000    0.0000 C   0  0  0  0  0  0  0  0  0  0  0  0
    0.0000    0.0000    0.0000 C   0  0  0  0  0  0  0  0  0  0  0  0
    0.0000    0.0000    0.0000 N   0  0  0  0  0  0  0  0  0  0  0  0
    0.0000    0.0000    0.0000 C   0  0  0  0  0  0  0  0  0  0  0  0
    0.0000    0.0000    0.0000 C   0  0  0  0  0  0  0  0  0  0  0  0
    0.0000    0.0000    0.0000 N   0  0  0  0  0  0  0  0  0  0  0  0
    0.0000    0.0000    0.0000 C   0  0  0  0  0  0  0  0  0  0  0  0
    0.0000    0.0000    0.0000 C   0  0  0  0  0  0  0  0  0  0  0  0
    0.0000    0.0000    0.0000 C   0  0  0  0  0  0  0  0  0  0  0  0
    0.0000    0.0000    0.0000 C   0  0  0  0  0  0  0  0  0  0  0  0
    0.0000    0.0000    0.0000 C   0  0  0  0  0  0  0  0  0  0  0  0
    0.0000    0.0000    0.0000 C   0  0  0  0  0  0  0  0  0  0  0  0
    0.0000    0.0000    0.0000 C   0  0  0  0  0  0  0  0  0  0  0  0
    0.0000    0.0000    0.0000 Cl  0  0  0  0  0  0  0  0  0  0  0  0
    0.0000    0.0000    0.0000 C   0  0  0  0  0  0  0  0  0  0  0  0
    0.0000    0.0000    0.0000 Cl  0  0  0  0  0  0  0  0  0  0  0  0
  1  2  1  0
  2  3  1  0
  3  4  1  0
  4  5  1  0
  5  6  1  0
  5  7  2  0
  7  8  1  0
  8  9  2  0
  9 10  1  0
 10 11  2  0
 11 12  1  0
 12 13  2  0
 13 14  1  0
 14 15  2  0
  7 16  1  0
 16 17  2  0
 16 18  1  0
 18 19  1  0
 19 20  1  0
 20 21  1  0
 21 22  1  0
 22 23  1  0
 23 24  1  0
 24 25  1  0
 25 26  1  0
 26 27  1  0
 25 28  1  0
 28 29  2  0
 29 30  1  0
 30 31  2  0
 31 32  1  0
 32 33  1  0
 32 34  2  0
 34 35  1  0
  9  4  1  0
 15 10  1  0
 27 22  1  0
 34 28  1  0
M  END
>  <pIC50>  (175) 
5.43

>  <ChEMBL_ID>  (175) 
CHEMBL1086756

>  <document_journal>  (175) 
Bioorg. Med. Chem. Lett.

>  <bao_endpoint>  (175) 
BAO_0000190

>  <potential_duplicate>  (175) 
False

>  <uo_units>  (175) 
UO_0000065

>  <canonical_smiles>  (175) 
CCCn1c(C)c(cc1c2ccccc2)C(=O)NCCCN3CCN(CC3)c4cccc(Cl)c4Cl

>  <parent_molecule_chembl_id>  (175) 
CHEMBL1086756

>  <assay_type>  (175) 
B

>  <src_id>  (175) 
1

>  <ligand_efficiency>  (175) 
{u'le': u'0.21', u'bei': u'10.57', u'sei': u'13.4', u'lle': u'-0.89'}

>  <standard_flag>  (175) 
True

>  <molecule_chembl_id>  (175) 
CHEMBL1086756

>  <target_organism>  (175) 
Homo sapiens

>  <standard_units>  (175) 
nM

>  <record_id>  (175) 
892910

>  <document_chembl_id>  (175) 
CHEMBL1154983

>  <bao_format>  (175) 
BAO_0000357

>  <data_validity_description>  (175) 
None

>  <activity_id>  (175) 
3189931

>  <standard_type>  (175) 
IC50

>  <target_chembl_id>  (175) 
CHEMBL217

>  <data_validity_comment>  (175) 
None

>  <published_value>  (175) 
3736

>  <document_year>  (175) 
2010

>  <target_pref_name>  (175) 
Dopamine D2 receptor

>  <assay_chembl_id>  (175) 
CHEMBL1101348

>  <standard_relation>  (175) 
=

>  <assay_description>  (175) 
Inhibition of dopamine D2 receptor

>  <published_relation>  (175) 
=

>  <standard_value>  (175) 
3736

>  <qudt_units>  (175) 
http://www.openphacts.org/units/Nanomolar

>  <target_tax_id>  (175) 
9606

>  <bao_label>  (175) 
single protein format

>  <published_units>  (175) 
nM

>  <pchembl_value>  (175) 
5.43

>  <published_type>  (175) 
IC50

>  <activity_comment>  (175) 
None

$$$$

     RDKit          

 22 23  0  0  0  0  0  0  0  0999 V2000
    0.0000    0.0000    0.0000 C   0  0  0  0  0  0  0  0  0  0  0  0
    0.0000    0.0000    0.0000 C   0  0  0  0  0  0  0  0  0  0  0  0
    0.0000    0.0000    0.0000 N   0  0  0  0  0  0  0  0  0  0  0  0
    0.0000    0.0000    0.0000 C   0  0  0  0  0  0  0  0  0  0  0  0
    0.0000    0.0000    0.0000 C   0  0  0  0  0  0  0  0  0  0  0  0
    0.0000    0.0000    0.0000 C   0  0  0  0  0  0  0  0  0  0  0  0
    0.0000    0.0000    0.0000 C   0  0  0  0  0  0  0  0  0  0  0  0
    0.0000    0.0000    0.0000 C   0  0  0  0  0  0  0  0  0  0  0  0
    0.0000    0.0000    0.0000 N   0  0  0  0  0  0  0  0  0  0  0  0
    0.0000    0.0000    0.0000 C   0  0  0  0  0  0  0  0  0  0  0  0
    0.0000    0.0000    0.0000 O   0  0  0  0  0  0  0  0  0  0  0  0
    0.0000    0.0000    0.0000 C   0  0  0  0  0  0  0  0  0  0  0  0
    0.0000    0.0000    0.0000 C   0  0  0  0  0  0  0  0  0  0  0  0
    0.0000    0.0000    0.0000 Cl  0  0  0  0  0  0  0  0  0  0  0  0
    0.0000    0.0000    0.0000 C   0  0  0  0  0  0  0  0  0  0  0  0
    0.0000    0.0000    0.0000 Cl  0  0  0  0  0  0  0  0  0  0  0  0
    0.0000    0.0000    0.0000 C   0  0  0  0  0  0  0  0  0  0  0  0
    0.0000    0.0000    0.0000 C   0  0  0  0  0  0  0  0  0  0  0  0
    0.0000    0.0000    0.0000 O   0  0  0  0  0  0  0  0  0  0  0  0
    0.0000    0.0000    0.0000 C   0  0  0  0  0  0  0  0  0  0  0  0
    0.0000    0.0000    0.0000 O   0  0  0  0  0  0  0  0  0  0  0  0
    0.0000    0.0000    0.0000 C   0  0  0  0  0  0  0  0  0  0  0  0
  1  2  1  0
  2  3  1  0
  3  4  1  0
  4  5  1  0
  5  6  1  0
  6  7  1  0
  7  8  1  0
  8  9  1  0
  9 10  1  0
 10 11  2  0
 10 12  1  0
 12 13  2  0
 13 14  1  0
 13 15  1  0
 15 16  1  0
 15 17  2  0
 17 18  1  0
 18 19  1  0
 18 20  2  0
 20 21  1  0
 21 22  1  0
  7  3  1  0
 20 12  1  0
M  END
>  <pIC50>  (176) 
7.49

>  <ChEMBL_ID>  (176) 
CHEMBL1276708

>  <document_journal>  (176) 
Eur. J. Med. Chem.

>  <bao_endpoint>  (176) 
BAO_0000190

>  <potential_duplicate>  (176) 
False

>  <uo_units>  (176) 
UO_0000065

>  <canonical_smiles>  (176) 
CCN1CCC[C@H]1CNC(=O)c2c(Cl)c(Cl)cc(O)c2OC

>  <parent_molecule_chembl_id>  (176) 
CHEMBL1276708

>  <assay_type>  (176) 
F

>  <src_id>  (176) 
1

>  <ligand_efficiency>  (176) 
None

>  <standard_flag>  (176) 
True

>  <molecule_chembl_id>  (176) 
CHEMBL1276708

>  <target_organism>  (176) 
Homo sapiens

>  <standard_units>  (176) 
nM

>  <record_id>  (176) 
970935

>  <document_chembl_id>  (176) 
CHEMBL1275273

>  <bao_format>  (176) 
BAO_0000019

>  <data_validity_description>  (176) 
None

>  <activity_id>  (176) 
3550715

>  <standard_type>  (176) 
IC50

>  <target_chembl_id>  (176) 
CHEMBL217

>  <data_validity_comment>  (176) 
None

>  <published_value>  (176) 
7.49

>  <document_year>  (176) 
2010

>  <target_pref_name>  (176) 
Dopamine D2 receptor

>  <assay_chembl_id>  (176) 
CHEMBL1285353

>  <standard_relation>  (176) 
=

>  <assay_description>  (176) 
Antagonist activity at dopamine D2 receptor

>  <published_relation>  (176) 
=

>  <standard_value>  (176) 
32.36

>  <qudt_units>  (176) 
http://www.openphacts.org/units/Nanomolar

>  <target_tax_id>  (176) 
9606

>  <bao_label>  (176) 
assay format

>  <published_units>  (176) 
None

>  <pchembl_value>  (176) 
7.49

>  <published_type>  (176) 
pIC50

>  <activity_comment>  (176) 
None

$$$$

     RDKit          

 23 24  0  0  0  0  0  0  0  0999 V2000
    0.0000    0.0000    0.0000 C   0  0  0  0  0  0  0  0  0  0  0  0
    0.0000    0.0000    0.0000 C   0  0  0  0  0  0  0  0  0  0  0  0
    0.0000    0.0000    0.0000 N   0  0  0  0  0  0  0  0  0  0  0  0
    0.0000    0.0000    0.0000 C   0  0  0  0  0  0  0  0  0  0  0  0
    0.0000    0.0000    0.0000 C   0  0  0  0  0  0  0  0  0  0  0  0
    0.0000    0.0000    0.0000 C   0  0  0  0  0  0  0  0  0  0  0  0
    0.0000    0.0000    0.0000 C   0  0  0  0  0  0  0  0  0  0  0  0
    0.0000    0.0000    0.0000 C   0  0  0  0  0  0  0  0  0  0  0  0
    0.0000    0.0000    0.0000 N   0  0  0  0  0  0  0  0  0  0  0  0
    0.0000    0.0000    0.0000 C   0  0  0  0  0  0  0  0  0  0  0  0
    0.0000    0.0000    0.0000 O   0  0  0  0  0  0  0  0  0  0  0  0
    0.0000    0.0000    0.0000 C   0  0  0  0  0  0  0  0  0  0  0  0
    0.0000    0.0000    0.0000 C   0  0  0  0  0  0  0  0  0  0  0  0
    0.0000    0.0000    0.0000 Cl  0  0  0  0  0  0  0  0  0  0  0  0
    0.0000    0.0000    0.0000 C   0  0  0  0  0  0  0  0  0  0  0  0
    0.0000    0.0000    0.0000 O   0  0  0  0  0  0  0  0  0  0  0  0
    0.0000    0.0000    0.0000 C   0  0  0  0  0  0  0  0  0  0  0  0
    0.0000    0.0000    0.0000 C   0  0  0  0  0  0  0  0  0  0  0  0
    0.0000    0.0000    0.0000 C   0  0  0  0  0  0  0  0  0  0  0  0
    0.0000    0.0000    0.0000 O   0  0  0  0  0  0  0  0  0  0  0  0
    0.0000    0.0000    0.0000 C   0  0  0  0  0  0  0  0  0  0  0  0
    0.0000    0.0000    0.0000 O   0  0  0  0  0  0  0  0  0  0  0  0
    0.0000    0.0000    0.0000 C   0  0  0  0  0  0  0  0  0  0  0  0
  1  2  1  0
  2  3  1  0
  3  4  1  0
  4  5  1  0
  5  6  1  0
  6  7  1  0
  7  8  1  0
  8  9  1  0
  9 10  1  0
 10 11  2  0
 10 12  1  0
 12 13  2  0
 13 14  1  0
 13 15  1  0
 15 16  1  0
 16 17  1  0
 15 18  2  0
 18 19  1  0
 19 20  1  0
 19 21  2  0
 21 22  1  0
 22 23  1  0
  7  3  1  0
 21 12  1  0
M  END
>  <pIC50>  (177) 
7.15

>  <ChEMBL_ID>  (177) 
CHEMBL1276709

>  <document_journal>  (177) 
Eur. J. Med. Chem.

>  <bao_endpoint>  (177) 
BAO_0000190

>  <potential_duplicate>  (177) 
False

>  <uo_units>  (177) 
UO_0000065

>  <canonical_smiles>  (177) 
CCN1CCC[C@H]1CNC(=O)c2c(Cl)c(OC)cc(O)c2OC

>  <parent_molecule_chembl_id>  (177) 
CHEMBL1276709

>  <assay_type>  (177) 
F

>  <src_id>  (177) 
1

>  <ligand_efficiency>  (177) 
None

>  <standard_flag>  (177) 
True

>  <molecule_chembl_id>  (177) 
CHEMBL1276709

>  <target_organism>  (177) 
Homo sapiens

>  <standard_units>  (177) 
nM

>  <record_id>  (177) 
970936

>  <document_chembl_id>  (177) 
CHEMBL1275273

>  <bao_format>  (177) 
BAO_0000019

>  <data_validity_description>  (177) 
None

>  <activity_id>  (177) 
3550716

>  <standard_type>  (177) 
IC50

>  <target_chembl_id>  (177) 
CHEMBL217

>  <data_validity_comment>  (177) 
None

>  <published_value>  (177) 
7.15

>  <document_year>  (177) 
2010

>  <target_pref_name>  (177) 
Dopamine D2 receptor

>  <assay_chembl_id>  (177) 
CHEMBL1285353

>  <standard_relation>  (177) 
=

>  <assay_description>  (177) 
Antagonist activity at dopamine D2 receptor

>  <published_relation>  (177) 
=

>  <standard_value>  (177) 
70.79

>  <qudt_units>  (177) 
http://www.openphacts.org/units/Nanomolar

>  <target_tax_id>  (177) 
9606

>  <bao_label>  (177) 
assay format

>  <published_units>  (177) 
None

>  <pchembl_value>  (177) 
7.15

>  <published_type>  (177) 
pIC50

>  <activity_comment>  (177) 
None

$$$$

     RDKit          

 21 22  0  0  0  0  0  0  0  0999 V2000
    0.0000    0.0000    0.0000 C   0  0  0  0  0  0  0  0  0  0  0  0
    0.0000    0.0000    0.0000 C   0  0  0  0  0  0  0  0  0  0  0  0
    0.0000    0.0000    0.0000 N   0  0  0  0  0  0  0  0  0  0  0  0
    0.0000    0.0000    0.0000 C   0  0  0  0  0  0  0  0  0  0  0  0
    0.0000    0.0000    0.0000 C   0  0  0  0  0  0  0  0  0  0  0  0
    0.0000    0.0000    0.0000 C   0  0  0  0  0  0  0  0  0  0  0  0
    0.0000    0.0000    0.0000 C   0  0  0  0  0  0  0  0  0  0  0  0
    0.0000    0.0000    0.0000 C   0  0  0  0  0  0  0  0  0  0  0  0
    0.0000    0.0000    0.0000 N   0  0  0  0  0  0  0  0  0  0  0  0
    0.0000    0.0000    0.0000 C   0  0  0  0  0  0  0  0  0  0  0  0
    0.0000    0.0000    0.0000 O   0  0  0  0  0  0  0  0  0  0  0  0
    0.0000    0.0000    0.0000 C   0  0  0  0  0  0  0  0  0  0  0  0
    0.0000    0.0000    0.0000 C   0  0  0  0  0  0  0  0  0  0  0  0
    0.0000    0.0000    0.0000 Br  0  0  0  0  0  0  0  0  0  0  0  0
    0.0000    0.0000    0.0000 C   0  0  0  0  0  0  0  0  0  0  0  0
    0.0000    0.0000    0.0000 Br  0  0  0  0  0  0  0  0  0  0  0  0
    0.0000    0.0000    0.0000 C   0  0  0  0  0  0  0  0  0  0  0  0
    0.0000    0.0000    0.0000 C   0  0  0  0  0  0  0  0  0  0  0  0
    0.0000    0.0000    0.0000 C   0  0  0  0  0  0  0  0  0  0  0  0
    0.0000    0.0000    0.0000 O   0  0  0  0  0  0  0  0  0  0  0  0
    0.0000    0.0000    0.0000 C   0  0  0  0  0  0  0  0  0  0  0  0
  1  2  1  0
  2  3  1  0
  3  4  1  0
  4  5  1  0
  5  6  1  0
  6  7  1  0
  7  8  1  0
  8  9  1  0
  9 10  1  0
 10 11  2  0
 10 12  1  0
 12 13  2  0
 13 14  1  0
 13 15  1  0
 15 16  1  0
 15 17  2  0
 17 18  1  0
 18 19  2  0
 19 20  1  0
 20 21  1  0
  7  3  1  0
 19 12  1  0
M  END
>  <pIC50>  (178) 
8.1

>  <ChEMBL_ID>  (178) 
CHEMBL1276738

>  <document_journal>  (178) 
Eur. J. Med. Chem.

>  <bao_endpoint>  (178) 
BAO_0000190

>  <potential_duplicate>  (178) 
False

>  <uo_units>  (178) 
UO_0000065

>  <canonical_smiles>  (178) 
CCN1CCC[C@H]1CNC(=O)c2c(Br)c(Br)ccc2OC

>  <parent_molecule_chembl_id>  (178) 
CHEMBL1276738

>  <assay_type>  (178) 
F

>  <src_id>  (178) 
1

>  <ligand_efficiency>  (178) 
None

>  <standard_flag>  (178) 
True

>  <molecule_chembl_id>  (178) 
CHEMBL1276738

>  <target_organism>  (178) 
Homo sapiens

>  <standard_units>  (178) 
nM

>  <record_id>  (178) 
971012

>  <document_chembl_id>  (178) 
CHEMBL1275273

>  <bao_format>  (178) 
BAO_0000019

>  <data_validity_description>  (178) 
None

>  <activity_id>  (178) 
3550717

>  <standard_type>  (178) 
IC50

>  <target_chembl_id>  (178) 
CHEMBL217

>  <data_validity_comment>  (178) 
None

>  <published_value>  (178) 
8.1

>  <document_year>  (178) 
2010

>  <target_pref_name>  (178) 
Dopamine D2 receptor

>  <assay_chembl_id>  (178) 
CHEMBL1285353

>  <standard_relation>  (178) 
=

>  <assay_description>  (178) 
Antagonist activity at dopamine D2 receptor

>  <published_relation>  (178) 
=

>  <standard_value>  (178) 
7.943

>  <qudt_units>  (178) 
http://www.openphacts.org/units/Nanomolar

>  <target_tax_id>  (178) 
9606

>  <bao_label>  (178) 
assay format

>  <published_units>  (178) 
None

>  <pchembl_value>  (178) 
8.1

>  <published_type>  (178) 
pIC50

>  <activity_comment>  (178) 
None

$$$$

     RDKit          

 22 23  0  0  0  0  0  0  0  0999 V2000
    0.0000    0.0000    0.0000 C   0  0  0  0  0  0  0  0  0  0  0  0
    0.0000    0.0000    0.0000 C   0  0  0  0  0  0  0  0  0  0  0  0
    0.0000    0.0000    0.0000 N   0  0  0  0  0  0  0  0  0  0  0  0
    0.0000    0.0000    0.0000 C   0  0  0  0  0  0  0  0  0  0  0  0
    0.0000    0.0000    0.0000 C   0  0  0  0  0  0  0  0  0  0  0  0
    0.0000    0.0000    0.0000 C   0  0  0  0  0  0  0  0  0  0  0  0
    0.0000    0.0000    0.0000 C   0  0  0  0  0  0  0  0  0  0  0  0
    0.0000    0.0000    0.0000 C   0  0  0  0  0  0  0  0  0  0  0  0
    0.0000    0.0000    0.0000 N   0  0  0  0  0  0  0  0  0  0  0  0
    0.0000    0.0000    0.0000 C   0  0  0  0  0  0  0  0  0  0  0  0
    0.0000    0.0000    0.0000 O   0  0  0  0  0  0  0  0  0  0  0  0
    0.0000    0.0000    0.0000 C   0  0  0  0  0  0  0  0  0  0  0  0
    0.0000    0.0000    0.0000 C   0  0  0  0  0  0  0  0  0  0  0  0
    0.0000    0.0000    0.0000 Br  0  0  0  0  0  0  0  0  0  0  0  0
    0.0000    0.0000    0.0000 C   0  0  0  0  0  0  0  0  0  0  0  0
    0.0000    0.0000    0.0000 C   0  0  0  0  0  0  0  0  0  0  0  0
    0.0000    0.0000    0.0000 C   0  0  0  0  0  0  0  0  0  0  0  0
    0.0000    0.0000    0.0000 C   0  0  0  0  0  0  0  0  0  0  0  0
    0.0000    0.0000    0.0000 C   0  0  0  0  0  0  0  0  0  0  0  0
    0.0000    0.0000    0.0000 C   0  0  0  0  0  0  0  0  0  0  0  0
    0.0000    0.0000    0.0000 O   0  0  0  0  0  0  0  0  0  0  0  0
    0.0000    0.0000    0.0000 C   0  0  0  0  0  0  0  0  0  0  0  0
  1  2  1  0
  2  3  1  0
  3  4  1  0
  4  5  1  0
  5  6  1  0
  6  7  1  0
  7  8  1  0
  8  9  1  0
  9 10  1  0
 10 11  2  0
 10 12  1  0
 12 13  2  0
 13 14  1  0
 13 15  1  0
 15 16  1  0
 16 17  1  0
 15 18  2  0
 18 19  1  0
 19 20  2  0
 20 21  1  0
 21 22  1  0
  7  3  1  0
 20 12  1  0
M  END
>  <pIC50>  (179) 
7.96

>  <ChEMBL_ID>  (179) 
CHEMBL1276739

>  <document_journal>  (179) 
Eur. J. Med. Chem.

>  <bao_endpoint>  (179) 
BAO_0000190

>  <potential_duplicate>  (179) 
False

>  <uo_units>  (179) 
UO_0000065

>  <canonical_smiles>  (179) 
CCN1CCC[C@H]1CNC(=O)c2c(Br)c(CC)ccc2OC

>  <parent_molecule_chembl_id>  (179) 
CHEMBL1276739

>  <assay_type>  (179) 
F

>  <src_id>  (179) 
1

>  <ligand_efficiency>  (179) 
None

>  <standard_flag>  (179) 
True

>  <molecule_chembl_id>  (179) 
CHEMBL1276739

>  <target_organism>  (179) 
Homo sapiens

>  <standard_units>  (179) 
nM

>  <record_id>  (179) 
971013

>  <document_chembl_id>  (179) 
CHEMBL1275273

>  <bao_format>  (179) 
BAO_0000019

>  <data_validity_description>  (179) 
None

>  <activity_id>  (179) 
3550718

>  <standard_type>  (179) 
IC50

>  <target_chembl_id>  (179) 
CHEMBL217

>  <data_validity_comment>  (179) 
None

>  <published_value>  (179) 
7.96

>  <document_year>  (179) 
2010

>  <target_pref_name>  (179) 
Dopamine D2 receptor

>  <assay_chembl_id>  (179) 
CHEMBL1285353

>  <standard_relation>  (179) 
=

>  <assay_description>  (179) 
Antagonist activity at dopamine D2 receptor

>  <published_relation>  (179) 
=

>  <standard_value>  (179) 
10.96

>  <qudt_units>  (179) 
http://www.openphacts.org/units/Nanomolar

>  <target_tax_id>  (179) 
9606

>  <bao_label>  (179) 
assay format

>  <published_units>  (179) 
None

>  <pchembl_value>  (179) 
7.96

>  <published_type>  (179) 
pIC50

>  <activity_comment>  (179) 
None

$$$$

     RDKit          

 22 23  0  0  0  0  0  0  0  0999 V2000
    0.0000    0.0000    0.0000 C   0  0  0  0  0  0  0  0  0  0  0  0
    0.0000    0.0000    0.0000 C   0  0  0  0  0  0  0  0  0  0  0  0
    0.0000    0.0000    0.0000 N   0  0  0  0  0  0  0  0  0  0  0  0
    0.0000    0.0000    0.0000 C   0  0  0  0  0  0  0  0  0  0  0  0
    0.0000    0.0000    0.0000 C   0  0  0  0  0  0  0  0  0  0  0  0
    0.0000    0.0000    0.0000 C   0  0  0  0  0  0  0  0  0  0  0  0
    0.0000    0.0000    0.0000 C   0  0  0  0  0  0  0  0  0  0  0  0
    0.0000    0.0000    0.0000 C   0  0  0  0  0  0  0  0  0  0  0  0
    0.0000    0.0000    0.0000 N   0  0  0  0  0  0  0  0  0  0  0  0
    0.0000    0.0000    0.0000 C   0  0  0  0  0  0  0  0  0  0  0  0
    0.0000    0.0000    0.0000 O   0  0  0  0  0  0  0  0  0  0  0  0
    0.0000    0.0000    0.0000 C   0  0  0  0  0  0  0  0  0  0  0  0
    0.0000    0.0000    0.0000 C   0  0  0  0  0  0  0  0  0  0  0  0
    0.0000    0.0000    0.0000 O   0  0  0  0  0  0  0  0  0  0  0  0
    0.0000    0.0000    0.0000 C   0  0  0  0  0  0  0  0  0  0  0  0
    0.0000    0.0000    0.0000 C   0  0  0  0  0  0  0  0  0  0  0  0
    0.0000    0.0000    0.0000 C   0  0  0  0  0  0  0  0  0  0  0  0
    0.0000    0.0000    0.0000 C   0  0  0  0  0  0  0  0  0  0  0  0
    0.0000    0.0000    0.0000 I   0  0  0  0  0  0  0  0  0  0  0  0
    0.0000    0.0000    0.0000 C   0  0  0  0  0  0  0  0  0  0  0  0
    0.0000    0.0000    0.0000 O   0  0  0  0  0  0  0  0  0  0  0  0
    0.0000    0.0000    0.0000 C   0  0  0  0  0  0  0  0  0  0  0  0
  1  2  1  0
  2  3  1  0
  3  4  1  0
  4  5  1  0
  5  6  1  0
  6  7  1  0
  7  8  1  0
  8  9  1  0
  9 10  1  0
 10 11  2  0
 10 12  1  0
 12 13  2  0
 13 14  1  0
 14 15  1  0
 13 16  1  0
 16 17  2  0
 17 18  1  0
 18 19  1  0
 18 20  2  0
 20 21  1  0
 21 22  1  0
  7  3  1  0
 20 12  1  0
M  END
>  <pIC50>  (180) 
9.17

>  <ChEMBL_ID>  (180) 
CHEMBL23464

>  <document_journal>  (180) 
Eur. J. Med. Chem.

>  <bao_endpoint>  (180) 
BAO_0000190

>  <potential_duplicate>  (180) 
False

>  <uo_units>  (180) 
UO_0000065

>  <canonical_smiles>  (180) 
CCN1CCC[C@H]1CNC(=O)c2c(OC)ccc(I)c2OC

>  <parent_molecule_chembl_id>  (180) 
CHEMBL23464

>  <assay_type>  (180) 
F

>  <src_id>  (180) 
1

>  <ligand_efficiency>  (180) 
None

>  <standard_flag>  (180) 
True

>  <molecule_chembl_id>  (180) 
CHEMBL23464

>  <target_organism>  (180) 
Homo sapiens

>  <standard_units>  (180) 
nM

>  <record_id>  (180) 
971014

>  <document_chembl_id>  (180) 
CHEMBL1275273

>  <bao_format>  (180) 
BAO_0000019

>  <data_validity_description>  (180) 
None

>  <activity_id>  (180) 
3550719

>  <standard_type>  (180) 
IC50

>  <target_chembl_id>  (180) 
CHEMBL217

>  <data_validity_comment>  (180) 
None

>  <published_value>  (180) 
9.17

>  <document_year>  (180) 
2010

>  <target_pref_name>  (180) 
Dopamine D2 receptor

>  <assay_chembl_id>  (180) 
CHEMBL1285353

>  <standard_relation>  (180) 
=

>  <assay_description>  (180) 
Antagonist activity at dopamine D2 receptor

>  <published_relation>  (180) 
=

>  <standard_value>  (180) 
0.6761

>  <qudt_units>  (180) 
http://www.openphacts.org/units/Nanomolar

>  <target_tax_id>  (180) 
9606

>  <bao_label>  (180) 
assay format

>  <published_units>  (180) 
None

>  <pchembl_value>  (180) 
9.17

>  <published_type>  (180) 
pIC50

>  <activity_comment>  (180) 
None

$$$$

     RDKit          

 24 25  0  0  0  0  0  0  0  0999 V2000
    0.0000    0.0000    0.0000 C   0  0  0  0  0  0  0  0  0  0  0  0
    0.0000    0.0000    0.0000 C   0  0  0  0  0  0  0  0  0  0  0  0
    0.0000    0.0000    0.0000 C   0  0  0  0  0  0  0  0  0  0  0  0
    0.0000    0.0000    0.0000 C   0  0  0  0  0  0  0  0  0  0  0  0
    0.0000    0.0000    0.0000 C   0  0  0  0  0  0  0  0  0  0  0  0
    0.0000    0.0000    0.0000 C   0  0  0  0  0  0  0  0  0  0  0  0
    0.0000    0.0000    0.0000 O   0  0  0  0  0  0  0  0  0  0  0  0
    0.0000    0.0000    0.0000 C   0  0  0  0  0  0  0  0  0  0  0  0
    0.0000    0.0000    0.0000 O   0  0  0  0  0  0  0  0  0  0  0  0
    0.0000    0.0000    0.0000 C   0  0  0  0  0  0  0  0  0  0  0  0
    0.0000    0.0000    0.0000 C   0  0  0  0  0  0  0  0  0  0  0  0
    0.0000    0.0000    0.0000 C   0  0  0  0  0  0  0  0  0  0  0  0
    0.0000    0.0000    0.0000 O   0  0  0  0  0  0  0  0  0  0  0  0
    0.0000    0.0000    0.0000 N   0  0  0  0  0  0  0  0  0  0  0  0
    0.0000    0.0000    0.0000 C   0  0  0  0  0  0  0  0  0  0  0  0
    0.0000    0.0000    0.0000 C   0  0  0  0  0  0  0  0  0  0  0  0
    0.0000    0.0000    0.0000 C   0  0  0  0  0  0  0  0  0  0  0  0
    0.0000    0.0000    0.0000 C   0  0  0  0  0  0  0  0  0  0  0  0
    0.0000    0.0000    0.0000 C   0  0  0  0  0  0  0  0  0  0  0  0
    0.0000    0.0000    0.0000 N   0  0  0  0  0  0  0  0  0  0  0  0
    0.0000    0.0000    0.0000 C   0  0  0  0  0  0  0  0  0  0  0  0
    0.0000    0.0000    0.0000 C   0  0  0  0  0  0  0  0  0  0  0  0
    0.0000    0.0000    0.0000 C   0  0  0  0  0  0  0  0  0  0  0  0
    0.0000    0.0000    0.0000 C   0  0  0  0  0  0  0  0  0  0  0  0
  1  2  1  0
  2  3  1  0
  3  4  1  0
  4  5  2  0
  5  6  1  0
  6  7  1  0
  6  8  2  0
  8  9  1  0
  9 10  1  0
  8 11  1  0
 11 12  1  0
 12 13  2  0
 12 14  1  0
 14 15  1  0
 15 16  1  0
 16 17  1  0
 17 18  1  0
 18 19  1  0
 19 20  1  0
 20 21  1  0
 21 22  1  0
 11 23  2  0
 23 24  1  0
 23  4  1  0
 20 16  1  0
M  END
>  <pIC50>  (181) 
8.3

>  <ChEMBL_ID>  (181) 
CHEMBL1276763

>  <document_journal>  (181) 
Eur. J. Med. Chem.

>  <bao_endpoint>  (181) 
BAO_0000190

>  <potential_duplicate>  (181) 
False

>  <uo_units>  (181) 
UO_0000065

>  <canonical_smiles>  (181) 
CCCc1cc(O)c(OC)c(C(=O)NC[C@@H]2CCCN2CC)c1C

>  <parent_molecule_chembl_id>  (181) 
CHEMBL1276763

>  <assay_type>  (181) 
F

>  <src_id>  (181) 
1

>  <ligand_efficiency>  (181) 
None

>  <standard_flag>  (181) 
True

>  <molecule_chembl_id>  (181) 
CHEMBL1276763

>  <target_organism>  (181) 
Homo sapiens

>  <standard_units>  (181) 
nM

>  <record_id>  (181) 
971093

>  <document_chembl_id>  (181) 
CHEMBL1275273

>  <bao_format>  (181) 
BAO_0000019

>  <data_validity_description>  (181) 
None

>  <activity_id>  (181) 
3550720

>  <standard_type>  (181) 
IC50

>  <target_chembl_id>  (181) 
CHEMBL217

>  <data_validity_comment>  (181) 
None

>  <published_value>  (181) 
8.3

>  <document_year>  (181) 
2010

>  <target_pref_name>  (181) 
Dopamine D2 receptor

>  <assay_chembl_id>  (181) 
CHEMBL1285353

>  <standard_relation>  (181) 
=

>  <assay_description>  (181) 
Antagonist activity at dopamine D2 receptor

>  <published_relation>  (181) 
=

>  <standard_value>  (181) 
5.012

>  <qudt_units>  (181) 
http://www.openphacts.org/units/Nanomolar

>  <target_tax_id>  (181) 
9606

>  <bao_label>  (181) 
assay format

>  <published_units>  (181) 
None

>  <pchembl_value>  (181) 
8.3

>  <published_type>  (181) 
pIC50

>  <activity_comment>  (181) 
None

$$$$

     RDKit          

 24 25  0  0  0  0  0  0  0  0999 V2000
    0.0000    0.0000    0.0000 C   0  0  0  0  0  0  0  0  0  0  0  0
    0.0000    0.0000    0.0000 C   0  0  0  0  0  0  0  0  0  0  0  0
    0.0000    0.0000    0.0000 C   0  0  0  0  0  0  0  0  0  0  0  0
    0.0000    0.0000    0.0000 C   0  0  0  0  0  0  0  0  0  0  0  0
    0.0000    0.0000    0.0000 C   0  0  0  0  0  0  0  0  0  0  0  0
    0.0000    0.0000    0.0000 Cl  0  0  0  0  0  0  0  0  0  0  0  0
    0.0000    0.0000    0.0000 C   0  0  0  0  0  0  0  0  0  0  0  0
    0.0000    0.0000    0.0000 C   0  0  0  0  0  0  0  0  0  0  0  0
    0.0000    0.0000    0.0000 O   0  0  0  0  0  0  0  0  0  0  0  0
    0.0000    0.0000    0.0000 C   0  0  0  0  0  0  0  0  0  0  0  0
    0.0000    0.0000    0.0000 O   0  0  0  0  0  0  0  0  0  0  0  0
    0.0000    0.0000    0.0000 C   0  0  0  0  0  0  0  0  0  0  0  0
    0.0000    0.0000    0.0000 C   0  0  0  0  0  0  0  0  0  0  0  0
    0.0000    0.0000    0.0000 C   0  0  0  0  0  0  0  0  0  0  0  0
    0.0000    0.0000    0.0000 O   0  0  0  0  0  0  0  0  0  0  0  0
    0.0000    0.0000    0.0000 N   0  0  0  0  0  0  0  0  0  0  0  0
    0.0000    0.0000    0.0000 C   0  0  0  0  0  0  0  0  0  0  0  0
    0.0000    0.0000    0.0000 C   0  0  0  0  0  0  0  0  0  0  0  0
    0.0000    0.0000    0.0000 C   0  0  0  0  0  0  0  0  0  0  0  0
    0.0000    0.0000    0.0000 C   0  0  0  0  0  0  0  0  0  0  0  0
    0.0000    0.0000    0.0000 C   0  0  0  0  0  0  0  0  0  0  0  0
    0.0000    0.0000    0.0000 N   0  0  0  0  0  0  0  0  0  0  0  0
    0.0000    0.0000    0.0000 C   0  0  0  0  0  0  0  0  0  0  0  0
    0.0000    0.0000    0.0000 C   0  0  0  0  0  0  0  0  0  0  0  0
  1  2  1  0
  2  3  1  0
  3  4  1  0
  4  5  2  0
  5  6  1  0
  5  7  1  0
  7  8  2  0
  8  9  1  0
  8 10  1  0
 10 11  1  0
 11 12  1  0
 10 13  2  0
 13 14  1  0
 14 15  2  0
 14 16  1  0
 16 17  1  0
 17 18  1  0
 18 19  1  0
 19 20  1  0
 20 21  1  0
 21 22  1  0
 22 23  1  0
 23 24  1  0
 13  4  1  0
 22 18  1  0
M  END
>  <pIC50>  (182) 
6.96

>  <ChEMBL_ID>  (182) 
CHEMBL1276764

>  <document_journal>  (182) 
Eur. J. Med. Chem.

>  <bao_endpoint>  (182) 
BAO_0000190

>  <potential_duplicate>  (182) 
False

>  <uo_units>  (182) 
UO_0000065

>  <canonical_smiles>  (182) 
CCCc1c(Cl)cc(O)c(OC)c1C(=O)NC[C@@H]2CCCN2CC

>  <parent_molecule_chembl_id>  (182) 
CHEMBL1276764

>  <assay_type>  (182) 
F

>  <src_id>  (182) 
1

>  <ligand_efficiency>  (182) 
None

>  <standard_flag>  (182) 
True

>  <molecule_chembl_id>  (182) 
CHEMBL1276764

>  <target_organism>  (182) 
Homo sapiens

>  <standard_units>  (182) 
nM

>  <record_id>  (182) 
971094

>  <document_chembl_id>  (182) 
CHEMBL1275273

>  <bao_format>  (182) 
BAO_0000019

>  <data_validity_description>  (182) 
None

>  <activity_id>  (182) 
3550721

>  <standard_type>  (182) 
IC50

>  <target_chembl_id>  (182) 
CHEMBL217

>  <data_validity_comment>  (182) 
None

>  <published_value>  (182) 
6.96

>  <document_year>  (182) 
2010

>  <target_pref_name>  (182) 
Dopamine D2 receptor

>  <assay_chembl_id>  (182) 
CHEMBL1285353

>  <standard_relation>  (182) 
=

>  <assay_description>  (182) 
Antagonist activity at dopamine D2 receptor

>  <published_relation>  (182) 
=

>  <standard_value>  (182) 
109.65

>  <qudt_units>  (182) 
http://www.openphacts.org/units/Nanomolar

>  <target_tax_id>  (182) 
9606

>  <bao_label>  (182) 
assay format

>  <published_units>  (182) 
None

>  <pchembl_value>  (182) 
6.96

>  <published_type>  (182) 
pIC50

>  <activity_comment>  (182) 
None

$$$$

     RDKit          

 22 23  0  0  0  0  0  0  0  0999 V2000
    0.0000    0.0000    0.0000 C   0  0  0  0  0  0  0  0  0  0  0  0
    0.0000    0.0000    0.0000 C   0  0  0  0  0  0  0  0  0  0  0  0
    0.0000    0.0000    0.0000 N   0  0  0  0  0  0  0  0  0  0  0  0
    0.0000    0.0000    0.0000 C   0  0  0  0  0  0  0  0  0  0  0  0
    0.0000    0.0000    0.0000 C   0  0  0  0  0  0  0  0  0  0  0  0
    0.0000    0.0000    0.0000 C   0  0  0  0  0  0  0  0  0  0  0  0
    0.0000    0.0000    0.0000 C   0  0  0  0  0  0  0  0  0  0  0  0
    0.0000    0.0000    0.0000 C   0  0  0  0  0  0  0  0  0  0  0  0
    0.0000    0.0000    0.0000 N   0  0  0  0  0  0  0  0  0  0  0  0
    0.0000    0.0000    0.0000 C   0  0  0  0  0  0  0  0  0  0  0  0
    0.0000    0.0000    0.0000 O   0  0  0  0  0  0  0  0  0  0  0  0
    0.0000    0.0000    0.0000 C   0  0  0  0  0  0  0  0  0  0  0  0
    0.0000    0.0000    0.0000 C   0  0  0  0  0  0  0  0  0  0  0  0
    0.0000    0.0000    0.0000 C   0  0  0  0  0  0  0  0  0  0  0  0
    0.0000    0.0000    0.0000 C   0  0  0  0  0  0  0  0  0  0  0  0
    0.0000    0.0000    0.0000 C   0  0  0  0  0  0  0  0  0  0  0  0
    0.0000    0.0000    0.0000 C   0  0  0  0  0  0  0  0  0  0  0  0
    0.0000    0.0000    0.0000 C   0  0  0  0  0  0  0  0  0  0  0  0
    0.0000    0.0000    0.0000 O   0  0  0  0  0  0  0  0  0  0  0  0
    0.0000    0.0000    0.0000 C   0  0  0  0  0  0  0  0  0  0  0  0
    0.0000    0.0000    0.0000 O   0  0  0  0  0  0  0  0  0  0  0  0
    0.0000    0.0000    0.0000 C   0  0  0  0  0  0  0  0  0  0  0  0
  1  2  1  0
  2  3  1  0
  3  4  1  0
  4  5  1  0
  5  6  1  0
  6  7  1  0
  7  8  1  0
  8  9  1  0
  9 10  1  0
 10 11  2  0
 10 12  1  0
 12 13  2  0
 13 14  1  0
 14 15  1  0
 13 16  1  0
 16 17  2  0
 17 18  1  0
 18 19  1  0
 18 20  2  0
 20 21  1  0
 21 22  1  0
  7  3  1  0
 20 12  1  0
M  END
>  <pIC50>  (183) 
6.91

>  <ChEMBL_ID>  (183) 
CHEMBL1276765

>  <document_journal>  (183) 
Eur. J. Med. Chem.

>  <bao_endpoint>  (183) 
BAO_0000190

>  <potential_duplicate>  (183) 
False

>  <uo_units>  (183) 
UO_0000065

>  <canonical_smiles>  (183) 
CCN1CCC[C@H]1CNC(=O)c2c(CC)ccc(O)c2OC

>  <parent_molecule_chembl_id>  (183) 
CHEMBL1276765

>  <assay_type>  (183) 
F

>  <src_id>  (183) 
1

>  <ligand_efficiency>  (183) 
None

>  <standard_flag>  (183) 
True

>  <molecule_chembl_id>  (183) 
CHEMBL1276765

>  <target_organism>  (183) 
Homo sapiens

>  <standard_units>  (183) 
nM

>  <record_id>  (183) 
971095

>  <document_chembl_id>  (183) 
CHEMBL1275273

>  <bao_format>  (183) 
BAO_0000019

>  <data_validity_description>  (183) 
None

>  <activity_id>  (183) 
3550722

>  <standard_type>  (183) 
IC50

>  <target_chembl_id>  (183) 
CHEMBL217

>  <data_validity_comment>  (183) 
None

>  <published_value>  (183) 
6.91

>  <document_year>  (183) 
2010

>  <target_pref_name>  (183) 
Dopamine D2 receptor

>  <assay_chembl_id>  (183) 
CHEMBL1285353

>  <standard_relation>  (183) 
=

>  <assay_description>  (183) 
Antagonist activity at dopamine D2 receptor

>  <published_relation>  (183) 
=

>  <standard_value>  (183) 
123.03

>  <qudt_units>  (183) 
http://www.openphacts.org/units/Nanomolar

>  <target_tax_id>  (183) 
9606

>  <bao_label>  (183) 
assay format

>  <published_units>  (183) 
None

>  <pchembl_value>  (183) 
6.91

>  <published_type>  (183) 
pIC50

>  <activity_comment>  (183) 
None

$$$$

     RDKit          

 23 24  0  0  0  0  0  0  0  0999 V2000
    0.0000    0.0000    0.0000 C   0  0  0  0  0  0  0  0  0  0  0  0
    0.0000    0.0000    0.0000 C   0  0  0  0  0  0  0  0  0  0  0  0
    0.0000    0.0000    0.0000 N   0  0  0  0  0  0  0  0  0  0  0  0
    0.0000    0.0000    0.0000 C   0  0  0  0  0  0  0  0  0  0  0  0
    0.0000    0.0000    0.0000 C   0  0  0  0  0  0  0  0  0  0  0  0
    0.0000    0.0000    0.0000 C   0  0  0  0  0  0  0  0  0  0  0  0
    0.0000    0.0000    0.0000 C   0  0  0  0  0  0  0  0  0  0  0  0
    0.0000    0.0000    0.0000 C   0  0  0  0  0  0  0  0  0  0  0  0
    0.0000    0.0000    0.0000 N   0  0  0  0  0  0  0  0  0  0  0  0
    0.0000    0.0000    0.0000 C   0  0  0  0  0  0  0  0  0  0  0  0
    0.0000    0.0000    0.0000 O   0  0  0  0  0  0  0  0  0  0  0  0
    0.0000    0.0000    0.0000 C   0  0  0  0  0  0  0  0  0  0  0  0
    0.0000    0.0000    0.0000 C   0  0  0  0  0  0  0  0  0  0  0  0
    0.0000    0.0000    0.0000 O   0  0  0  0  0  0  0  0  0  0  0  0
    0.0000    0.0000    0.0000 C   0  0  0  0  0  0  0  0  0  0  0  0
    0.0000    0.0000    0.0000 C   0  0  0  0  0  0  0  0  0  0  0  0
    0.0000    0.0000    0.0000 O   0  0  0  0  0  0  0  0  0  0  0  0
    0.0000    0.0000    0.0000 C   0  0  0  0  0  0  0  0  0  0  0  0
    0.0000    0.0000    0.0000 C   0  0  0  0  0  0  0  0  0  0  0  0
    0.0000    0.0000    0.0000 I   0  0  0  0  0  0  0  0  0  0  0  0
    0.0000    0.0000    0.0000 C   0  0  0  0  0  0  0  0  0  0  0  0
    0.0000    0.0000    0.0000 O   0  0  0  0  0  0  0  0  0  0  0  0
    0.0000    0.0000    0.0000 C   0  0  0  0  0  0  0  0  0  0  0  0
  1  2  1  0
  2  3  1  0
  3  4  1  0
  4  5  1  0
  5  6  1  0
  6  7  1  0
  7  8  1  0
  8  9  1  0
  9 10  1  0
 10 11  2  0
 10 12  1  0
 12 13  2  0
 13 14  1  0
 14 15  1  0
 13 16  1  0
 16 17  1  0
 16 18  2  0
 18 19  1  0
 19 20  1  0
 19 21  2  0
 21 22  1  0
 22 23  1  0
  7  3  1  0
 21 12  1  0
M  END
>  <pIC50>  (184) 
9.54

>  <ChEMBL_ID>  (184) 
CHEMBL1276325

>  <document_journal>  (184) 
Eur. J. Med. Chem.

>  <bao_endpoint>  (184) 
BAO_0000190

>  <potential_duplicate>  (184) 
False

>  <uo_units>  (184) 
UO_0000065

>  <canonical_smiles>  (184) 
CCN1CCC[C@H]1CNC(=O)c2c(OC)c(O)cc(I)c2OC

>  <parent_molecule_chembl_id>  (184) 
CHEMBL1276325

>  <assay_type>  (184) 
F

>  <src_id>  (184) 
1

>  <ligand_efficiency>  (184) 
None

>  <standard_flag>  (184) 
True

>  <molecule_chembl_id>  (184) 
CHEMBL1276325

>  <target_organism>  (184) 
Homo sapiens

>  <standard_units>  (184) 
nM

>  <record_id>  (184) 
969924

>  <document_chembl_id>  (184) 
CHEMBL1275273

>  <bao_format>  (184) 
BAO_0000019

>  <data_validity_description>  (184) 
None

>  <activity_id>  (184) 
3550723

>  <standard_type>  (184) 
IC50

>  <target_chembl_id>  (184) 
CHEMBL217

>  <data_validity_comment>  (184) 
None

>  <published_value>  (184) 
9.54

>  <document_year>  (184) 
2010

>  <target_pref_name>  (184) 
Dopamine D2 receptor

>  <assay_chembl_id>  (184) 
CHEMBL1285353

>  <standard_relation>  (184) 
=

>  <assay_description>  (184) 
Antagonist activity at dopamine D2 receptor

>  <published_relation>  (184) 
=

>  <standard_value>  (184) 
0.2884

>  <qudt_units>  (184) 
http://www.openphacts.org/units/Nanomolar

>  <target_tax_id>  (184) 
9606

>  <bao_label>  (184) 
assay format

>  <published_units>  (184) 
None

>  <pchembl_value>  (184) 
9.54

>  <published_type>  (184) 
pIC50

>  <activity_comment>  (184) 
None

$$$$

     RDKit          

 23 24  0  0  0  0  0  0  0  0999 V2000
    0.0000    0.0000    0.0000 C   0  0  0  0  0  0  0  0  0  0  0  0
    0.0000    0.0000    0.0000 C   0  0  0  0  0  0  0  0  0  0  0  0
    0.0000    0.0000    0.0000 N   0  0  0  0  0  0  0  0  0  0  0  0
    0.0000    0.0000    0.0000 C   0  0  0  0  0  0  0  0  0  0  0  0
    0.0000    0.0000    0.0000 C   0  0  0  0  0  0  0  0  0  0  0  0
    0.0000    0.0000    0.0000 C   0  0  0  0  0  0  0  0  0  0  0  0
    0.0000    0.0000    0.0000 C   0  0  0  0  0  0  0  0  0  0  0  0
    0.0000    0.0000    0.0000 C   0  0  0  0  0  0  0  0  0  0  0  0
    0.0000    0.0000    0.0000 N   0  0  0  0  0  0  0  0  0  0  0  0
    0.0000    0.0000    0.0000 C   0  0  0  0  0  0  0  0  0  0  0  0
    0.0000    0.0000    0.0000 O   0  0  0  0  0  0  0  0  0  0  0  0
    0.0000    0.0000    0.0000 C   0  0  0  0  0  0  0  0  0  0  0  0
    0.0000    0.0000    0.0000 C   0  0  0  0  0  0  0  0  0  0  0  0
    0.0000    0.0000    0.0000 O   0  0  0  0  0  0  0  0  0  0  0  0
    0.0000    0.0000    0.0000 C   0  0  0  0  0  0  0  0  0  0  0  0
    0.0000    0.0000    0.0000 C   0  0  0  0  0  0  0  0  0  0  0  0
    0.0000    0.0000    0.0000 C   0  0  0  0  0  0  0  0  0  0  0  0
    0.0000    0.0000    0.0000 C   0  0  0  0  0  0  0  0  0  0  0  0
    0.0000    0.0000    0.0000 S   0  0  0  0  0  0  0  0  0  0  0  0
    0.0000    0.0000    0.0000 C   0  0  0  0  0  0  0  0  0  0  0  0
    0.0000    0.0000    0.0000 C   0  0  0  0  0  0  0  0  0  0  0  0
    0.0000    0.0000    0.0000 O   0  0  0  0  0  0  0  0  0  0  0  0
    0.0000    0.0000    0.0000 C   0  0  0  0  0  0  0  0  0  0  0  0
  1  2  1  0
  2  3  1  0
  3  4  1  0
  4  5  1  0
  5  6  1  0
  6  7  1  0
  7  8  1  0
  8  9  1  0
  9 10  1  0
 10 11  2  0
 10 12  1  0
 12 13  2  0
 13 14  1  0
 14 15  1  0
 13 16  1  0
 16 17  2  0
 17 18  1  0
 18 19  1  0
 19 20  1  0
 18 21  2  0
 21 22  1  0
 22 23  1  0
  7  3  1  0
 21 12  1  0
M  END
>  <pIC50>  (185) 
8.96

>  <ChEMBL_ID>  (185) 
CHEMBL1276326

>  <document_journal>  (185) 
Eur. J. Med. Chem.

>  <bao_endpoint>  (185) 
BAO_0000190

>  <potential_duplicate>  (185) 
False

>  <uo_units>  (185) 
UO_0000065

>  <canonical_smiles>  (185) 
CCN1CCC[C@H]1CNC(=O)c2c(OC)ccc(SC)c2OC

>  <parent_molecule_chembl_id>  (185) 
CHEMBL1276326

>  <assay_type>  (185) 
F

>  <src_id>  (185) 
1

>  <ligand_efficiency>  (185) 
None

>  <standard_flag>  (185) 
True

>  <molecule_chembl_id>  (185) 
CHEMBL1276326

>  <target_organism>  (185) 
Homo sapiens

>  <standard_units>  (185) 
nM

>  <record_id>  (185) 
969925

>  <document_chembl_id>  (185) 
CHEMBL1275273

>  <bao_format>  (185) 
BAO_0000019

>  <data_validity_description>  (185) 
None

>  <activity_id>  (185) 
3550724

>  <standard_type>  (185) 
IC50

>  <target_chembl_id>  (185) 
CHEMBL217

>  <data_validity_comment>  (185) 
None

>  <published_value>  (185) 
8.96

>  <document_year>  (185) 
2010

>  <target_pref_name>  (185) 
Dopamine D2 receptor

>  <assay_chembl_id>  (185) 
CHEMBL1285353

>  <standard_relation>  (185) 
=

>  <assay_description>  (185) 
Antagonist activity at dopamine D2 receptor

>  <published_relation>  (185) 
=

>  <standard_value>  (185) 
1.096

>  <qudt_units>  (185) 
http://www.openphacts.org/units/Nanomolar

>  <target_tax_id>  (185) 
9606

>  <bao_label>  (185) 
assay format

>  <published_units>  (185) 
None

>  <pchembl_value>  (185) 
8.96

>  <published_type>  (185) 
pIC50

>  <activity_comment>  (185) 
None

$$$$

     RDKit          

 24 25  0  0  0  0  0  0  0  0999 V2000
    0.0000    0.0000    0.0000 C   0  0  0  0  0  0  0  0  0  0  0  0
    0.0000    0.0000    0.0000 C   0  0  0  0  0  0  0  0  0  0  0  0
    0.0000    0.0000    0.0000 N   0  0  0  0  0  0  0  0  0  0  0  0
    0.0000    0.0000    0.0000 C   0  0  0  0  0  0  0  0  0  0  0  0
    0.0000    0.0000    0.0000 C   0  0  0  0  0  0  0  0  0  0  0  0
    0.0000    0.0000    0.0000 C   0  0  0  0  0  0  0  0  0  0  0  0
    0.0000    0.0000    0.0000 C   0  0  0  0  0  0  0  0  0  0  0  0
    0.0000    0.0000    0.0000 C   0  0  0  0  0  0  0  0  0  0  0  0
    0.0000    0.0000    0.0000 N   0  0  0  0  0  0  0  0  0  0  0  0
    0.0000    0.0000    0.0000 C   0  0  0  0  0  0  0  0  0  0  0  0
    0.0000    0.0000    0.0000 O   0  0  0  0  0  0  0  0  0  0  0  0
    0.0000    0.0000    0.0000 C   0  0  0  0  0  0  0  0  0  0  0  0
    0.0000    0.0000    0.0000 C   0  0  0  0  0  0  0  0  0  0  0  0
    0.0000    0.0000    0.0000 O   0  0  0  0  0  0  0  0  0  0  0  0
    0.0000    0.0000    0.0000 C   0  0  0  0  0  0  0  0  0  0  0  0
    0.0000    0.0000    0.0000 C   0  0  0  0  0  0  0  0  0  0  0  0
    0.0000    0.0000    0.0000 O   0  0  0  0  0  0  0  0  0  0  0  0
    0.0000    0.0000    0.0000 C   0  0  0  0  0  0  0  0  0  0  0  0
    0.0000    0.0000    0.0000 C   0  0  0  0  0  0  0  0  0  0  0  0
    0.0000    0.0000    0.0000 C   0  0  0  0  0  0  0  0  0  0  0  0
    0.0000    0.0000    0.0000 C   0  0  0  0  0  0  0  0  0  0  0  0
    0.0000    0.0000    0.0000 C   0  0  0  0  0  0  0  0  0  0  0  0
    0.0000    0.0000    0.0000 O   0  0  0  0  0  0  0  0  0  0  0  0
    0.0000    0.0000    0.0000 C   0  0  0  0  0  0  0  0  0  0  0  0
  1  2  1  0
  2  3  1  0
  3  4  1  0
  4  5  1  0
  5  6  1  0
  6  7  1  0
  7  8  1  0
  8  9  1  0
  9 10  1  0
 10 11  2  0
 10 12  1  0
 12 13  2  0
 13 14  1  0
 14 15  1  0
 13 16  1  0
 16 17  1  0
 16 18  2  0
 18 19  1  0
 19 20  1  0
 20 21  1  0
 19 22  2  0
 22 23  1  0
 23 24  1  0
  7  3  1  0
 22 12  1  0
M  END
>  <pIC50>  (186) 
8.89

>  <ChEMBL_ID>  (186) 
CHEMBL1276327

>  <document_journal>  (186) 
Eur. J. Med. Chem.

>  <bao_endpoint>  (186) 
BAO_0000190

>  <potential_duplicate>  (186) 
False

>  <uo_units>  (186) 
UO_0000065

>  <canonical_smiles>  (186) 
CCN1CCC[C@H]1CNC(=O)c2c(OC)c(O)cc(CC)c2OC

>  <parent_molecule_chembl_id>  (186) 
CHEMBL1276327

>  <assay_type>  (186) 
F

>  <src_id>  (186) 
1

>  <ligand_efficiency>  (186) 
None

>  <standard_flag>  (186) 
True

>  <molecule_chembl_id>  (186) 
CHEMBL1276327

>  <target_organism>  (186) 
Homo sapiens

>  <standard_units>  (186) 
nM

>  <record_id>  (186) 
969926

>  <document_chembl_id>  (186) 
CHEMBL1275273

>  <bao_format>  (186) 
BAO_0000019

>  <data_validity_description>  (186) 
None

>  <activity_id>  (186) 
3550725

>  <standard_type>  (186) 
IC50

>  <target_chembl_id>  (186) 
CHEMBL217

>  <data_validity_comment>  (186) 
None

>  <published_value>  (186) 
8.89

>  <document_year>  (186) 
2010

>  <target_pref_name>  (186) 
Dopamine D2 receptor

>  <assay_chembl_id>  (186) 
CHEMBL1285353

>  <standard_relation>  (186) 
=

>  <assay_description>  (186) 
Antagonist activity at dopamine D2 receptor

>  <published_relation>  (186) 
=

>  <standard_value>  (186) 
1.288

>  <qudt_units>  (186) 
http://www.openphacts.org/units/Nanomolar

>  <target_tax_id>  (186) 
9606

>  <bao_label>  (186) 
assay format

>  <published_units>  (186) 
None

>  <pchembl_value>  (186) 
8.89

>  <published_type>  (186) 
pIC50

>  <activity_comment>  (186) 
None

$$$$

     RDKit          

 25 26  0  0  0  0  0  0  0  0999 V2000
    0.0000    0.0000    0.0000 C   0  0  0  0  0  0  0  0  0  0  0  0
    0.0000    0.0000    0.0000 C   0  0  0  0  0  0  0  0  0  0  0  0
    0.0000    0.0000    0.0000 C   0  0  0  0  0  0  0  0  0  0  0  0
    0.0000    0.0000    0.0000 C   0  0  0  0  0  0  0  0  0  0  0  0
    0.0000    0.0000    0.0000 C   0  0  0  0  0  0  0  0  0  0  0  0
    0.0000    0.0000    0.0000 C   0  0  0  0  0  0  0  0  0  0  0  0
    0.0000    0.0000    0.0000 C   0  0  0  0  0  0  0  0  0  0  0  0
    0.0000    0.0000    0.0000 C   0  0  0  0  0  0  0  0  0  0  0  0
    0.0000    0.0000    0.0000 O   0  0  0  0  0  0  0  0  0  0  0  0
    0.0000    0.0000    0.0000 C   0  0  0  0  0  0  0  0  0  0  0  0
    0.0000    0.0000    0.0000 C   0  0  0  0  0  0  0  0  0  0  0  0
    0.0000    0.0000    0.0000 C   0  0  0  0  0  0  0  0  0  0  0  0
    0.0000    0.0000    0.0000 O   0  0  0  0  0  0  0  0  0  0  0  0
    0.0000    0.0000    0.0000 N   0  0  0  0  0  0  0  0  0  0  0  0
    0.0000    0.0000    0.0000 C   0  0  0  0  0  0  0  0  0  0  0  0
    0.0000    0.0000    0.0000 C   0  0  0  0  0  0  0  0  0  0  0  0
    0.0000    0.0000    0.0000 C   0  0  0  0  0  0  0  0  0  0  0  0
    0.0000    0.0000    0.0000 C   0  0  0  0  0  0  0  0  0  0  0  0
    0.0000    0.0000    0.0000 C   0  0  0  0  0  0  0  0  0  0  0  0
    0.0000    0.0000    0.0000 N   0  0  0  0  0  0  0  0  0  0  0  0
    0.0000    0.0000    0.0000 C   0  0  0  0  0  0  0  0  0  0  0  0
    0.0000    0.0000    0.0000 C   0  0  0  0  0  0  0  0  0  0  0  0
    0.0000    0.0000    0.0000 C   0  0  0  0  0  0  0  0  0  0  0  0
    0.0000    0.0000    0.0000 O   0  0  0  0  0  0  0  0  0  0  0  0
    0.0000    0.0000    0.0000 C   0  0  0  0  0  0  0  0  0  0  0  0
  1  2  1  0
  2  3  1  0
  3  4  1  0
  4  5  1  0
  5  6  2  0
  6  7  1  0
  7  8  2  0
  8  9  1  0
  9 10  1  0
  8 11  1  0
 11 12  1  0
 12 13  2  0
 12 14  1  0
 14 15  1  0
 15 16  1  0
 16 17  1  0
 17 18  1  0
 18 19  1  0
 19 20  1  0
 20 21  1  0
 21 22  1  0
 11 23  2  0
 23 24  1  0
 24 25  1  0
 23  5  1  0
 20 16  1  0
M  END
>  <pIC50>  (187) 
8.57

>  <ChEMBL_ID>  (187) 
CHEMBL1276350

>  <document_journal>  (187) 
Eur. J. Med. Chem.

>  <bao_endpoint>  (187) 
BAO_0000190

>  <potential_duplicate>  (187) 
False

>  <uo_units>  (187) 
UO_0000065

>  <canonical_smiles>  (187) 
CCCCc1ccc(OC)c(C(=O)NC[C@@H]2CCCN2CC)c1OC

>  <parent_molecule_chembl_id>  (187) 
CHEMBL1276350

>  <assay_type>  (187) 
F

>  <src_id>  (187) 
1

>  <ligand_efficiency>  (187) 
None

>  <standard_flag>  (187) 
True

>  <molecule_chembl_id>  (187) 
CHEMBL1276350

>  <target_organism>  (187) 
Homo sapiens

>  <standard_units>  (187) 
nM

>  <record_id>  (187) 
970005

>  <document_chembl_id>  (187) 
CHEMBL1275273

>  <bao_format>  (187) 
BAO_0000019

>  <data_validity_description>  (187) 
None

>  <activity_id>  (187) 
3550726

>  <standard_type>  (187) 
IC50

>  <target_chembl_id>  (187) 
CHEMBL217

>  <data_validity_comment>  (187) 
None

>  <published_value>  (187) 
8.57

>  <document_year>  (187) 
2010

>  <target_pref_name>  (187) 
Dopamine D2 receptor

>  <assay_chembl_id>  (187) 
CHEMBL1285353

>  <standard_relation>  (187) 
=

>  <assay_description>  (187) 
Antagonist activity at dopamine D2 receptor

>  <published_relation>  (187) 
=

>  <standard_value>  (187) 
2.692

>  <qudt_units>  (187) 
http://www.openphacts.org/units/Nanomolar

>  <target_tax_id>  (187) 
9606

>  <bao_label>  (187) 
assay format

>  <published_units>  (187) 
None

>  <pchembl_value>  (187) 
8.57

>  <published_type>  (187) 
pIC50

>  <activity_comment>  (187) 
None

$$$$

     RDKit          

 22 23  0  0  0  0  0  0  0  0999 V2000
    0.0000    0.0000    0.0000 C   0  0  0  0  0  0  0  0  0  0  0  0
    0.0000    0.0000    0.0000 C   0  0  0  0  0  0  0  0  0  0  0  0
    0.0000    0.0000    0.0000 C   0  0  0  0  0  0  0  0  0  0  0  0
    0.0000    0.0000    0.0000 C   0  0  0  0  0  0  0  0  0  0  0  0
    0.0000    0.0000    0.0000 C   0  0  0  0  0  0  0  0  0  0  0  0
    0.0000    0.0000    0.0000 C   0  0  0  0  0  0  0  0  0  0  0  0
    0.0000    0.0000    0.0000 C   0  0  0  0  0  0  0  0  0  0  0  0
    0.0000    0.0000    0.0000 O   0  0  0  0  0  0  0  0  0  0  0  0
    0.0000    0.0000    0.0000 C   0  0  0  0  0  0  0  0  0  0  0  0
    0.0000    0.0000    0.0000 C   0  0  0  0  0  0  0  0  0  0  0  0
    0.0000    0.0000    0.0000 C   0  0  0  0  0  0  0  0  0  0  0  0
    0.0000    0.0000    0.0000 C   0  0  0  0  0  0  0  0  0  0  0  0
    0.0000    0.0000    0.0000 O   0  0  0  0  0  0  0  0  0  0  0  0
    0.0000    0.0000    0.0000 N   0  0  0  0  0  0  0  0  0  0  0  0
    0.0000    0.0000    0.0000 C   0  0  0  0  0  0  0  0  0  0  0  0
    0.0000    0.0000    0.0000 C   0  0  0  0  0  0  0  0  0  0  0  0
    0.0000    0.0000    0.0000 C   0  0  0  0  0  0  0  0  0  0  0  0
    0.0000    0.0000    0.0000 C   0  0  0  0  0  0  0  0  0  0  0  0
    0.0000    0.0000    0.0000 C   0  0  0  0  0  0  0  0  0  0  0  0
    0.0000    0.0000    0.0000 N   0  0  0  0  0  0  0  0  0  0  0  0
    0.0000    0.0000    0.0000 C   0  0  0  0  0  0  0  0  0  0  0  0
    0.0000    0.0000    0.0000 C   0  0  0  0  0  0  0  0  0  0  0  0
  1  2  1  0
  2  3  1  0
  3  4  1  0
  4  5  2  0
  5  6  1  0
  6  7  2  0
  7  8  1  0
  8  9  1  0
  7 10  1  0
 10 11  2  0
 10 12  1  0
 12 13  2  0
 12 14  1  0
 14 15  1  0
 15 16  1  0
 16 17  1  0
 17 18  1  0
 18 19  1  0
 19 20  1  0
 20 21  1  0
 21 22  1  0
 11  4  1  0
 20 16  1  0
M  END
>  <pIC50>  (188) 
7.17

>  <ChEMBL_ID>  (188) 
CHEMBL1276351

>  <document_journal>  (188) 
Eur. J. Med. Chem.

>  <bao_endpoint>  (188) 
BAO_0000190

>  <potential_duplicate>  (188) 
False

>  <uo_units>  (188) 
UO_0000065

>  <canonical_smiles>  (188) 
CCCc1ccc(OC)c(c1)C(=O)NC[C@@H]2CCCN2CC

>  <parent_molecule_chembl_id>  (188) 
CHEMBL1276351

>  <assay_type>  (188) 
F

>  <src_id>  (188) 
1

>  <ligand_efficiency>  (188) 
None

>  <standard_flag>  (188) 
True

>  <molecule_chembl_id>  (188) 
CHEMBL1276351

>  <target_organism>  (188) 
Homo sapiens

>  <standard_units>  (188) 
nM

>  <record_id>  (188) 
970006

>  <document_chembl_id>  (188) 
CHEMBL1275273

>  <bao_format>  (188) 
BAO_0000019

>  <data_validity_description>  (188) 
None

>  <activity_id>  (188) 
3550727

>  <standard_type>  (188) 
IC50

>  <target_chembl_id>  (188) 
CHEMBL217

>  <data_validity_comment>  (188) 
None

>  <published_value>  (188) 
7.17

>  <document_year>  (188) 
2010

>  <target_pref_name>  (188) 
Dopamine D2 receptor

>  <assay_chembl_id>  (188) 
CHEMBL1285353

>  <standard_relation>  (188) 
=

>  <assay_description>  (188) 
Antagonist activity at dopamine D2 receptor

>  <published_relation>  (188) 
=

>  <standard_value>  (188) 
67.61

>  <qudt_units>  (188) 
http://www.openphacts.org/units/Nanomolar

>  <target_tax_id>  (188) 
9606

>  <bao_label>  (188) 
assay format

>  <published_units>  (188) 
None

>  <pchembl_value>  (188) 
7.17

>  <published_type>  (188) 
pIC50

>  <activity_comment>  (188) 
None

$$$$

     RDKit          

 20 21  0  0  0  0  0  0  0  0999 V2000
    0.0000    0.0000    0.0000 C   0  0  0  0  0  0  0  0  0  0  0  0
    0.0000    0.0000    0.0000 C   0  0  0  0  0  0  0  0  0  0  0  0
    0.0000    0.0000    0.0000 N   0  0  0  0  0  0  0  0  0  0  0  0
    0.0000    0.0000    0.0000 C   0  0  0  0  0  0  0  0  0  0  0  0
    0.0000    0.0000    0.0000 C   0  0  0  0  0  0  0  0  0  0  0  0
    0.0000    0.0000    0.0000 C   0  0  0  0  0  0  0  0  0  0  0  0
    0.0000    0.0000    0.0000 C   0  0  0  0  0  0  0  0  0  0  0  0
    0.0000    0.0000    0.0000 C   0  0  0  0  0  0  0  0  0  0  0  0
    0.0000    0.0000    0.0000 N   0  0  0  0  0  0  0  0  0  0  0  0
    0.0000    0.0000    0.0000 C   0  0  0  0  0  0  0  0  0  0  0  0
    0.0000    0.0000    0.0000 O   0  0  0  0  0  0  0  0  0  0  0  0
    0.0000    0.0000    0.0000 C   0  0  0  0  0  0  0  0  0  0  0  0
    0.0000    0.0000    0.0000 C   0  0  0  0  0  0  0  0  0  0  0  0
    0.0000    0.0000    0.0000 C   0  0  0  0  0  0  0  0  0  0  0  0
    0.0000    0.0000    0.0000 Cl  0  0  0  0  0  0  0  0  0  0  0  0
    0.0000    0.0000    0.0000 C   0  0  0  0  0  0  0  0  0  0  0  0
    0.0000    0.0000    0.0000 C   0  0  0  0  0  0  0  0  0  0  0  0
    0.0000    0.0000    0.0000 C   0  0  0  0  0  0  0  0  0  0  0  0
    0.0000    0.0000    0.0000 O   0  0  0  0  0  0  0  0  0  0  0  0
    0.0000    0.0000    0.0000 C   0  0  0  0  0  0  0  0  0  0  0  0
  1  2  1  0
  2  3  1  0
  3  4  1  0
  4  5  1  0
  5  6  1  0
  6  7  1  0
  7  8  1  0
  8  9  1  0
  9 10  1  0
 10 11  2  0
 10 12  1  0
 12 13  2  0
 13 14  1  0
 14 15  1  0
 14 16  2  0
 16 17  1  0
 17 18  2  0
 18 19  1  0
 19 20  1  0
  7  3  1  0
 18 12  1  0
M  END
>  <pIC50>  (189) 
6.59

>  <ChEMBL_ID>  (189) 
CHEMBL1276238

>  <document_journal>  (189) 
Eur. J. Med. Chem.

>  <bao_endpoint>  (189) 
BAO_0000190

>  <potential_duplicate>  (189) 
False

>  <uo_units>  (189) 
UO_0000065

>  <canonical_smiles>  (189) 
CCN1CCC[C@H]1CNC(=O)c2cc(Cl)ccc2OC

>  <parent_molecule_chembl_id>  (189) 
CHEMBL1276238

>  <assay_type>  (189) 
F

>  <src_id>  (189) 
1

>  <ligand_efficiency>  (189) 
None

>  <standard_flag>  (189) 
True

>  <molecule_chembl_id>  (189) 
CHEMBL1276238

>  <target_organism>  (189) 
Homo sapiens

>  <standard_units>  (189) 
nM

>  <record_id>  (189) 
969418

>  <document_chembl_id>  (189) 
CHEMBL1275273

>  <bao_format>  (189) 
BAO_0000019

>  <data_validity_description>  (189) 
None

>  <activity_id>  (189) 
3550728

>  <standard_type>  (189) 
IC50

>  <target_chembl_id>  (189) 
CHEMBL217

>  <data_validity_comment>  (189) 
None

>  <published_value>  (189) 
6.59

>  <document_year>  (189) 
2010

>  <target_pref_name>  (189) 
Dopamine D2 receptor

>  <assay_chembl_id>  (189) 
CHEMBL1285353

>  <standard_relation>  (189) 
=

>  <assay_description>  (189) 
Antagonist activity at dopamine D2 receptor

>  <published_relation>  (189) 
=

>  <standard_value>  (189) 
257.04

>  <qudt_units>  (189) 
http://www.openphacts.org/units/Nanomolar

>  <target_tax_id>  (189) 
9606

>  <bao_label>  (189) 
assay format

>  <published_units>  (189) 
None

>  <pchembl_value>  (189) 
6.59

>  <published_type>  (189) 
pIC50

>  <activity_comment>  (189) 
None

$$$$

     RDKit          

 21 22  0  0  0  0  0  0  0  0999 V2000
    0.0000    0.0000    0.0000 C   0  0  0  0  0  0  0  0  0  0  0  0
    0.0000    0.0000    0.0000 C   0  0  0  0  0  0  0  0  0  0  0  0
    0.0000    0.0000    0.0000 N   0  0  0  0  0  0  0  0  0  0  0  0
    0.0000    0.0000    0.0000 C   0  0  0  0  0  0  0  0  0  0  0  0
    0.0000    0.0000    0.0000 C   0  0  0  0  0  0  0  0  0  0  0  0
    0.0000    0.0000    0.0000 C   0  0  0  0  0  0  0  0  0  0  0  0
    0.0000    0.0000    0.0000 C   0  0  0  0  0  0  0  0  0  0  0  0
    0.0000    0.0000    0.0000 C   0  0  0  0  0  0  0  0  0  0  0  0
    0.0000    0.0000    0.0000 N   0  0  0  0  0  0  0  0  0  0  0  0
    0.0000    0.0000    0.0000 C   0  0  0  0  0  0  0  0  0  0  0  0
    0.0000    0.0000    0.0000 O   0  0  0  0  0  0  0  0  0  0  0  0
    0.0000    0.0000    0.0000 C   0  0  0  0  0  0  0  0  0  0  0  0
    0.0000    0.0000    0.0000 C   0  0  0  0  0  0  0  0  0  0  0  0
    0.0000    0.0000    0.0000 Cl  0  0  0  0  0  0  0  0  0  0  0  0
    0.0000    0.0000    0.0000 C   0  0  0  0  0  0  0  0  0  0  0  0
    0.0000    0.0000    0.0000 Cl  0  0  0  0  0  0  0  0  0  0  0  0
    0.0000    0.0000    0.0000 C   0  0  0  0  0  0  0  0  0  0  0  0
    0.0000    0.0000    0.0000 C   0  0  0  0  0  0  0  0  0  0  0  0
    0.0000    0.0000    0.0000 C   0  0  0  0  0  0  0  0  0  0  0  0
    0.0000    0.0000    0.0000 O   0  0  0  0  0  0  0  0  0  0  0  0
    0.0000    0.0000    0.0000 C   0  0  0  0  0  0  0  0  0  0  0  0
  1  2  1  0
  2  3  1  0
  3  4  1  0
  4  5  1  0
  5  6  1  0
  6  7  1  0
  7  8  1  0
  8  9  1  0
  9 10  1  0
 10 11  2  0
 10 12  1  0
 12 13  2  0
 13 14  1  0
 13 15  1  0
 15 16  1  0
 15 17  2  0
 17 18  1  0
 18 19  2  0
 19 20  1  0
 20 21  1  0
  7  3  1  0
 19 12  1  0
M  END
>  <pIC50>  (190) 
7.7

>  <ChEMBL_ID>  (190) 
CHEMBL1276352

>  <document_journal>  (190) 
Eur. J. Med. Chem.

>  <bao_endpoint>  (190) 
BAO_0000190

>  <potential_duplicate>  (190) 
False

>  <uo_units>  (190) 
UO_0000065

>  <canonical_smiles>  (190) 
CCN1CCC[C@H]1CNC(=O)c2c(Cl)c(Cl)ccc2OC

>  <parent_molecule_chembl_id>  (190) 
CHEMBL1276352

>  <assay_type>  (190) 
F

>  <src_id>  (190) 
1

>  <ligand_efficiency>  (190) 
None

>  <standard_flag>  (190) 
True

>  <molecule_chembl_id>  (190) 
CHEMBL1276352

>  <target_organism>  (190) 
Homo sapiens

>  <standard_units>  (190) 
nM

>  <record_id>  (190) 
970007

>  <document_chembl_id>  (190) 
CHEMBL1275273

>  <bao_format>  (190) 
BAO_0000019

>  <data_validity_description>  (190) 
None

>  <activity_id>  (190) 
3550729

>  <standard_type>  (190) 
IC50

>  <target_chembl_id>  (190) 
CHEMBL217

>  <data_validity_comment>  (190) 
None

>  <published_value>  (190) 
7.7

>  <document_year>  (190) 
2010

>  <target_pref_name>  (190) 
Dopamine D2 receptor

>  <assay_chembl_id>  (190) 
CHEMBL1285353

>  <standard_relation>  (190) 
=

>  <assay_description>  (190) 
Antagonist activity at dopamine D2 receptor

>  <published_relation>  (190) 
=

>  <standard_value>  (190) 
19.95

>  <qudt_units>  (190) 
http://www.openphacts.org/units/Nanomolar

>  <target_tax_id>  (190) 
9606

>  <bao_label>  (190) 
assay format

>  <published_units>  (190) 
None

>  <pchembl_value>  (190) 
7.7

>  <published_type>  (190) 
pIC50

>  <activity_comment>  (190) 
None

$$$$

     RDKit          

 21 22  0  0  0  0  0  0  0  0999 V2000
    0.0000    0.0000    0.0000 C   0  0  0  0  0  0  0  0  0  0  0  0
    0.0000    0.0000    0.0000 C   0  0  0  0  0  0  0  0  0  0  0  0
    0.0000    0.0000    0.0000 N   0  0  0  0  0  0  0  0  0  0  0  0
    0.0000    0.0000    0.0000 C   0  0  0  0  0  0  0  0  0  0  0  0
    0.0000    0.0000    0.0000 C   0  0  0  0  0  0  0  0  0  0  0  0
    0.0000    0.0000    0.0000 C   0  0  0  0  0  0  0  0  0  0  0  0
    0.0000    0.0000    0.0000 C   0  0  0  0  0  0  0  0  0  0  0  0
    0.0000    0.0000    0.0000 C   0  0  0  0  0  0  0  0  0  0  0  0
    0.0000    0.0000    0.0000 N   0  0  0  0  0  0  0  0  0  0  0  0
    0.0000    0.0000    0.0000 C   0  0  0  0  0  0  0  0  0  0  0  0
    0.0000    0.0000    0.0000 O   0  0  0  0  0  0  0  0  0  0  0  0
    0.0000    0.0000    0.0000 C   0  0  0  0  0  0  0  0  0  0  0  0
    0.0000    0.0000    0.0000 C   0  0  0  0  0  0  0  0  0  0  0  0
    0.0000    0.0000    0.0000 Br  0  0  0  0  0  0  0  0  0  0  0  0
    0.0000    0.0000    0.0000 C   0  0  0  0  0  0  0  0  0  0  0  0
    0.0000    0.0000    0.0000 Cl  0  0  0  0  0  0  0  0  0  0  0  0
    0.0000    0.0000    0.0000 C   0  0  0  0  0  0  0  0  0  0  0  0
    0.0000    0.0000    0.0000 C   0  0  0  0  0  0  0  0  0  0  0  0
    0.0000    0.0000    0.0000 C   0  0  0  0  0  0  0  0  0  0  0  0
    0.0000    0.0000    0.0000 O   0  0  0  0  0  0  0  0  0  0  0  0
    0.0000    0.0000    0.0000 C   0  0  0  0  0  0  0  0  0  0  0  0
  1  2  1  0
  2  3  1  0
  3  4  1  0
  4  5  1  0
  5  6  1  0
  6  7  1  0
  7  8  1  0
  8  9  1  0
  9 10  1  0
 10 11  2  0
 10 12  1  0
 12 13  2  0
 13 14  1  0
 13 15  1  0
 15 16  1  0
 15 17  2  0
 17 18  1  0
 18 19  2  0
 19 20  1  0
 20 21  1  0
  7  3  1  0
 19 12  1  0
M  END
>  <pIC50>  (191) 
8.25

>  <ChEMBL_ID>  (191) 
CHEMBL1276374

>  <document_journal>  (191) 
Eur. J. Med. Chem.

>  <bao_endpoint>  (191) 
BAO_0000190

>  <potential_duplicate>  (191) 
False

>  <uo_units>  (191) 
UO_0000065

>  <canonical_smiles>  (191) 
CCN1CCC[C@H]1CNC(=O)c2c(Br)c(Cl)ccc2OC

>  <parent_molecule_chembl_id>  (191) 
CHEMBL1276374

>  <assay_type>  (191) 
F

>  <src_id>  (191) 
1

>  <ligand_efficiency>  (191) 
None

>  <standard_flag>  (191) 
True

>  <molecule_chembl_id>  (191) 
CHEMBL1276374

>  <target_organism>  (191) 
Homo sapiens

>  <standard_units>  (191) 
nM

>  <record_id>  (191) 
970085

>  <document_chembl_id>  (191) 
CHEMBL1275273

>  <bao_format>  (191) 
BAO_0000019

>  <data_validity_description>  (191) 
None

>  <activity_id>  (191) 
3550730

>  <standard_type>  (191) 
IC50

>  <target_chembl_id>  (191) 
CHEMBL217

>  <data_validity_comment>  (191) 
None

>  <published_value>  (191) 
8.25

>  <document_year>  (191) 
2010

>  <target_pref_name>  (191) 
Dopamine D2 receptor

>  <assay_chembl_id>  (191) 
CHEMBL1285353

>  <standard_relation>  (191) 
=

>  <assay_description>  (191) 
Antagonist activity at dopamine D2 receptor

>  <published_relation>  (191) 
=

>  <standard_value>  (191) 
5.623

>  <qudt_units>  (191) 
http://www.openphacts.org/units/Nanomolar

>  <target_tax_id>  (191) 
9606

>  <bao_label>  (191) 
assay format

>  <published_units>  (191) 
None

>  <pchembl_value>  (191) 
8.25

>  <published_type>  (191) 
pIC50

>  <activity_comment>  (191) 
None

$$$$

     RDKit          

 20 21  0  0  0  0  0  0  0  0999 V2000
    0.0000    0.0000    0.0000 C   0  0  0  0  0  0  0  0  0  0  0  0
    0.0000    0.0000    0.0000 C   0  0  0  0  0  0  0  0  0  0  0  0
    0.0000    0.0000    0.0000 N   0  0  0  0  0  0  0  0  0  0  0  0
    0.0000    0.0000    0.0000 C   0  0  0  0  0  0  0  0  0  0  0  0
    0.0000    0.0000    0.0000 C   0  0  0  0  0  0  0  0  0  0  0  0
    0.0000    0.0000    0.0000 C   0  0  0  0  0  0  0  0  0  0  0  0
    0.0000    0.0000    0.0000 C   0  0  0  0  0  0  0  0  0  0  0  0
    0.0000    0.0000    0.0000 C   0  0  0  0  0  0  0  0  0  0  0  0
    0.0000    0.0000    0.0000 N   0  0  0  0  0  0  0  0  0  0  0  0
    0.0000    0.0000    0.0000 C   0  0  0  0  0  0  0  0  0  0  0  0
    0.0000    0.0000    0.0000 O   0  0  0  0  0  0  0  0  0  0  0  0
    0.0000    0.0000    0.0000 C   0  0  0  0  0  0  0  0  0  0  0  0
    0.0000    0.0000    0.0000 C   0  0  0  0  0  0  0  0  0  0  0  0
    0.0000    0.0000    0.0000 C   0  0  0  0  0  0  0  0  0  0  0  0
    0.0000    0.0000    0.0000 Br  0  0  0  0  0  0  0  0  0  0  0  0
    0.0000    0.0000    0.0000 C   0  0  0  0  0  0  0  0  0  0  0  0
    0.0000    0.0000    0.0000 C   0  0  0  0  0  0  0  0  0  0  0  0
    0.0000    0.0000    0.0000 C   0  0  0  0  0  0  0  0  0  0  0  0
    0.0000    0.0000    0.0000 O   0  0  0  0  0  0  0  0  0  0  0  0
    0.0000    0.0000    0.0000 C   0  0  0  0  0  0  0  0  0  0  0  0
  1  2  1  0
  2  3  1  0
  3  4  1  0
  4  5  1  0
  5  6  1  0
  6  7  1  0
  7  8  1  0
  8  9  1  0
  9 10  1  0
 10 11  2  0
 10 12  1  0
 12 13  2  0
 13 14  1  0
 14 15  1  0
 14 16  2  0
 16 17  1  0
 17 18  2  0
 18 19  1  0
 19 20  1  0
  7  3  1  0
 18 12  1  0
M  END
>  <pIC50>  (192) 
7.34

>  <ChEMBL_ID>  (192) 
CHEMBL1276268

>  <document_journal>  (192) 
Eur. J. Med. Chem.

>  <bao_endpoint>  (192) 
BAO_0000190

>  <potential_duplicate>  (192) 
False

>  <uo_units>  (192) 
UO_0000065

>  <canonical_smiles>  (192) 
CCN1CCC[C@H]1CNC(=O)c2cc(Br)ccc2OC

>  <parent_molecule_chembl_id>  (192) 
CHEMBL1276268

>  <assay_type>  (192) 
F

>  <src_id>  (192) 
1

>  <ligand_efficiency>  (192) 
None

>  <standard_flag>  (192) 
True

>  <molecule_chembl_id>  (192) 
CHEMBL1276268

>  <target_organism>  (192) 
Homo sapiens

>  <standard_units>  (192) 
nM

>  <record_id>  (192) 
969482

>  <document_chembl_id>  (192) 
CHEMBL1275273

>  <bao_format>  (192) 
BAO_0000019

>  <data_validity_description>  (192) 
None

>  <activity_id>  (192) 
3550731

>  <standard_type>  (192) 
IC50

>  <target_chembl_id>  (192) 
CHEMBL217

>  <data_validity_comment>  (192) 
None

>  <published_value>  (192) 
7.34

>  <document_year>  (192) 
2010

>  <target_pref_name>  (192) 
Dopamine D2 receptor

>  <assay_chembl_id>  (192) 
CHEMBL1285353

>  <standard_relation>  (192) 
=

>  <assay_description>  (192) 
Antagonist activity at dopamine D2 receptor

>  <published_relation>  (192) 
=

>  <standard_value>  (192) 
45.71

>  <qudt_units>  (192) 
http://www.openphacts.org/units/Nanomolar

>  <target_tax_id>  (192) 
9606

>  <bao_label>  (192) 
assay format

>  <published_units>  (192) 
None

>  <pchembl_value>  (192) 
7.34

>  <published_type>  (192) 
pIC50

>  <activity_comment>  (192) 
None

$$$$

     RDKit          

 22 23  0  0  0  0  0  0  0  0999 V2000
    0.0000    0.0000    0.0000 C   0  0  0  0  0  0  0  0  0  0  0  0
    0.0000    0.0000    0.0000 C   0  0  0  0  0  0  0  0  0  0  0  0
    0.0000    0.0000    0.0000 N   0  0  0  0  0  0  0  0  0  0  0  0
    0.0000    0.0000    0.0000 C   0  0  0  0  0  0  0  0  0  0  0  0
    0.0000    0.0000    0.0000 C   0  0  0  0  0  0  0  0  0  0  0  0
    0.0000    0.0000    0.0000 C   0  0  0  0  0  0  0  0  0  0  0  0
    0.0000    0.0000    0.0000 C   0  0  0  0  0  0  0  0  0  0  0  0
    0.0000    0.0000    0.0000 C   0  0  0  0  0  0  0  0  0  0  0  0
    0.0000    0.0000    0.0000 N   0  0  0  0  0  0  0  0  0  0  0  0
    0.0000    0.0000    0.0000 C   0  0  0  0  0  0  0  0  0  0  0  0
    0.0000    0.0000    0.0000 O   0  0  0  0  0  0  0  0  0  0  0  0
    0.0000    0.0000    0.0000 C   0  0  0  0  0  0  0  0  0  0  0  0
    0.0000    0.0000    0.0000 C   0  0  0  0  0  0  0  0  0  0  0  0
    0.0000    0.0000    0.0000 Cl  0  0  0  0  0  0  0  0  0  0  0  0
    0.0000    0.0000    0.0000 C   0  0  0  0  0  0  0  0  0  0  0  0
    0.0000    0.0000    0.0000 C   0  0  0  0  0  0  0  0  0  0  0  0
    0.0000    0.0000    0.0000 C   0  0  0  0  0  0  0  0  0  0  0  0
    0.0000    0.0000    0.0000 C   0  0  0  0  0  0  0  0  0  0  0  0
    0.0000    0.0000    0.0000 C   0  0  0  0  0  0  0  0  0  0  0  0
    0.0000    0.0000    0.0000 C   0  0  0  0  0  0  0  0  0  0  0  0
    0.0000    0.0000    0.0000 O   0  0  0  0  0  0  0  0  0  0  0  0
    0.0000    0.0000    0.0000 C   0  0  0  0  0  0  0  0  0  0  0  0
  1  2  1  0
  2  3  1  0
  3  4  1  0
  4  5  1  0
  5  6  1  0
  6  7  1  0
  7  8  1  0
  8  9  1  0
  9 10  1  0
 10 11  2  0
 10 12  1  0
 12 13  2  0
 13 14  1  0
 13 15  1  0
 15 16  1  0
 16 17  1  0
 15 18  2  0
 18 19  1  0
 19 20  2  0
 20 21  1  0
 21 22  1  0
  7  3  1  0
 20 12  1  0
M  END
>  <pIC50>  (193) 
8.38

>  <ChEMBL_ID>  (193) 
CHEMBL1276375

>  <document_journal>  (193) 
Eur. J. Med. Chem.

>  <bao_endpoint>  (193) 
BAO_0000190

>  <potential_duplicate>  (193) 
False

>  <uo_units>  (193) 
UO_0000065

>  <canonical_smiles>  (193) 
CCN1CCC[C@H]1CNC(=O)c2c(Cl)c(CC)ccc2OC

>  <parent_molecule_chembl_id>  (193) 
CHEMBL1276375

>  <assay_type>  (193) 
F

>  <src_id>  (193) 
1

>  <ligand_efficiency>  (193) 
None

>  <standard_flag>  (193) 
True

>  <molecule_chembl_id>  (193) 
CHEMBL1276375

>  <target_organism>  (193) 
Homo sapiens

>  <standard_units>  (193) 
nM

>  <record_id>  (193) 
970087

>  <document_chembl_id>  (193) 
CHEMBL1275273

>  <bao_format>  (193) 
BAO_0000019

>  <data_validity_description>  (193) 
None

>  <activity_id>  (193) 
3550733

>  <standard_type>  (193) 
IC50

>  <target_chembl_id>  (193) 
CHEMBL217

>  <data_validity_comment>  (193) 
None

>  <published_value>  (193) 
8.38

>  <document_year>  (193) 
2010

>  <target_pref_name>  (193) 
Dopamine D2 receptor

>  <assay_chembl_id>  (193) 
CHEMBL1285353

>  <standard_relation>  (193) 
=

>  <assay_description>  (193) 
Antagonist activity at dopamine D2 receptor

>  <published_relation>  (193) 
=

>  <standard_value>  (193) 
4.169

>  <qudt_units>  (193) 
http://www.openphacts.org/units/Nanomolar

>  <target_tax_id>  (193) 
9606

>  <bao_label>  (193) 
assay format

>  <published_units>  (193) 
None

>  <pchembl_value>  (193) 
8.38

>  <published_type>  (193) 
pIC50

>  <activity_comment>  (193) 
None

$$$$

     RDKit          

 21 22  0  0  0  0  0  0  0  0999 V2000
    0.0000    0.0000    0.0000 C   0  0  0  0  0  0  0  0  0  0  0  0
    0.0000    0.0000    0.0000 C   0  0  0  0  0  0  0  0  0  0  0  0
    0.0000    0.0000    0.0000 N   0  0  0  0  0  0  0  0  0  0  0  0
    0.0000    0.0000    0.0000 C   0  0  0  0  0  0  0  0  0  0  0  0
    0.0000    0.0000    0.0000 C   0  0  0  0  0  0  0  0  0  0  0  0
    0.0000    0.0000    0.0000 C   0  0  0  0  0  0  0  0  0  0  0  0
    0.0000    0.0000    0.0000 C   0  0  0  0  0  0  0  0  0  0  0  0
    0.0000    0.0000    0.0000 C   0  0  0  0  0  0  0  0  0  0  0  0
    0.0000    0.0000    0.0000 N   0  0  0  0  0  0  0  0  0  0  0  0
    0.0000    0.0000    0.0000 C   0  0  0  0  0  0  0  0  0  0  0  0
    0.0000    0.0000    0.0000 O   0  0  0  0  0  0  0  0  0  0  0  0
    0.0000    0.0000    0.0000 C   0  0  0  0  0  0  0  0  0  0  0  0
    0.0000    0.0000    0.0000 C   0  0  0  0  0  0  0  0  0  0  0  0
    0.0000    0.0000    0.0000 Cl  0  0  0  0  0  0  0  0  0  0  0  0
    0.0000    0.0000    0.0000 C   0  0  0  0  0  0  0  0  0  0  0  0
    0.0000    0.0000    0.0000 C   0  0  0  0  0  0  0  0  0  0  0  0
    0.0000    0.0000    0.0000 C   0  0  0  0  0  0  0  0  0  0  0  0
    0.0000    0.0000    0.0000 O   0  0  0  0  0  0  0  0  0  0  0  0
    0.0000    0.0000    0.0000 C   0  0  0  0  0  0  0  0  0  0  0  0
    0.0000    0.0000    0.0000 O   0  0  0  0  0  0  0  0  0  0  0  0
    0.0000    0.0000    0.0000 C   0  0  0  0  0  0  0  0  0  0  0  0
  1  2  1  0
  2  3  1  0
  3  4  1  0
  4  5  1  0
  5  6  1  0
  6  7  1  0
  7  8  1  0
  8  9  1  0
  9 10  1  0
 10 11  2  0
 10 12  1  0
 12 13  2  0
 13 14  1  0
 13 15  1  0
 15 16  2  0
 16 17  1  0
 17 18  1  0
 17 19  2  0
 19 20  1  0
 20 21  1  0
  7  3  1  0
 19 12  1  0
M  END
>  <pIC50>  (194) 
7.19

>  <ChEMBL_ID>  (194) 
CHEMBL1276399

>  <document_journal>  (194) 
Eur. J. Med. Chem.

>  <bao_endpoint>  (194) 
BAO_0000190

>  <potential_duplicate>  (194) 
False

>  <uo_units>  (194) 
UO_0000065

>  <canonical_smiles>  (194) 
CCN1CCC[C@H]1CNC(=O)c2c(Cl)ccc(O)c2OC

>  <parent_molecule_chembl_id>  (194) 
CHEMBL1276399

>  <assay_type>  (194) 
F

>  <src_id>  (194) 
1

>  <ligand_efficiency>  (194) 
None

>  <standard_flag>  (194) 
True

>  <molecule_chembl_id>  (194) 
CHEMBL1276399

>  <target_organism>  (194) 
Homo sapiens

>  <standard_units>  (194) 
nM

>  <record_id>  (194) 
970164

>  <document_chembl_id>  (194) 
CHEMBL1275273

>  <bao_format>  (194) 
BAO_0000019

>  <data_validity_description>  (194) 
None

>  <activity_id>  (194) 
3550734

>  <standard_type>  (194) 
IC50

>  <target_chembl_id>  (194) 
CHEMBL217

>  <data_validity_comment>  (194) 
None

>  <published_value>  (194) 
7.19

>  <document_year>  (194) 
2010

>  <target_pref_name>  (194) 
Dopamine D2 receptor

>  <assay_chembl_id>  (194) 
CHEMBL1285353

>  <standard_relation>  (194) 
=

>  <assay_description>  (194) 
Antagonist activity at dopamine D2 receptor

>  <published_relation>  (194) 
=

>  <standard_value>  (194) 
64.57

>  <qudt_units>  (194) 
http://www.openphacts.org/units/Nanomolar

>  <target_tax_id>  (194) 
9606

>  <bao_label>  (194) 
assay format

>  <published_units>  (194) 
None

>  <pchembl_value>  (194) 
7.19

>  <published_type>  (194) 
pIC50

>  <activity_comment>  (194) 
None

$$$$

     RDKit          

 22 23  0  0  0  0  0  0  0  0999 V2000
    0.0000    0.0000    0.0000 C   0  0  0  0  0  0  0  0  0  0  0  0
    0.0000    0.0000    0.0000 C   0  0  0  0  0  0  0  0  0  0  0  0
    0.0000    0.0000    0.0000 N   0  0  0  0  0  0  0  0  0  0  0  0
    0.0000    0.0000    0.0000 C   0  0  0  0  0  0  0  0  0  0  0  0
    0.0000    0.0000    0.0000 C   0  0  0  0  0  0  0  0  0  0  0  0
    0.0000    0.0000    0.0000 C   0  0  0  0  0  0  0  0  0  0  0  0
    0.0000    0.0000    0.0000 C   0  0  0  0  0  0  0  0  0  0  0  0
    0.0000    0.0000    0.0000 C   0  0  0  0  0  0  0  0  0  0  0  0
    0.0000    0.0000    0.0000 N   0  0  0  0  0  0  0  0  0  0  0  0
    0.0000    0.0000    0.0000 C   0  0  0  0  0  0  0  0  0  0  0  0
    0.0000    0.0000    0.0000 O   0  0  0  0  0  0  0  0  0  0  0  0
    0.0000    0.0000    0.0000 C   0  0  0  0  0  0  0  0  0  0  0  0
    0.0000    0.0000    0.0000 C   0  0  0  0  0  0  0  0  0  0  0  0
    0.0000    0.0000    0.0000 O   0  0  0  0  0  0  0  0  0  0  0  0
    0.0000    0.0000    0.0000 C   0  0  0  0  0  0  0  0  0  0  0  0
    0.0000    0.0000    0.0000 C   0  0  0  0  0  0  0  0  0  0  0  0
    0.0000    0.0000    0.0000 C   0  0  0  0  0  0  0  0  0  0  0  0
    0.0000    0.0000    0.0000 C   0  0  0  0  0  0  0  0  0  0  0  0
    0.0000    0.0000    0.0000 O   0  0  0  0  0  0  0  0  0  0  0  0
    0.0000    0.0000    0.0000 C   0  0  0  0  0  0  0  0  0  0  0  0
    0.0000    0.0000    0.0000 O   0  0  0  0  0  0  0  0  0  0  0  0
    0.0000    0.0000    0.0000 C   0  0  0  0  0  0  0  0  0  0  0  0
  1  2  1  0
  2  3  1  0
  3  4  1  0
  4  5  1  0
  5  6  1  0
  6  7  1  0
  7  8  1  0
  8  9  1  0
  9 10  1  0
 10 11  2  0
 10 12  1  0
 12 13  2  0
 13 14  1  0
 14 15  1  0
 13 16  1  0
 16 17  2  0
 17 18  1  0
 18 19  1  0
 18 20  2  0
 20 21  1  0
 21 22  1  0
  7  3  1  0
 20 12  1  0
M  END
>  <pIC50>  (195) 
8.06

>  <ChEMBL_ID>  (195) 
CHEMBL1276400

>  <document_journal>  (195) 
Eur. J. Med. Chem.

>  <bao_endpoint>  (195) 
BAO_0000190

>  <potential_duplicate>  (195) 
False

>  <uo_units>  (195) 
UO_0000065

>  <canonical_smiles>  (195) 
CCN1CCC[C@H]1CNC(=O)c2c(OC)ccc(O)c2OC

>  <parent_molecule_chembl_id>  (195) 
CHEMBL1276400

>  <assay_type>  (195) 
F

>  <src_id>  (195) 
1

>  <ligand_efficiency>  (195) 
None

>  <standard_flag>  (195) 
True

>  <molecule_chembl_id>  (195) 
CHEMBL1276400

>  <target_organism>  (195) 
Homo sapiens

>  <standard_units>  (195) 
nM

>  <record_id>  (195) 
970165

>  <document_chembl_id>  (195) 
CHEMBL1275273

>  <bao_format>  (195) 
BAO_0000019

>  <data_validity_description>  (195) 
None

>  <activity_id>  (195) 
3550735

>  <standard_type>  (195) 
IC50

>  <target_chembl_id>  (195) 
CHEMBL217

>  <data_validity_comment>  (195) 
None

>  <published_value>  (195) 
8.06

>  <document_year>  (195) 
2010

>  <target_pref_name>  (195) 
Dopamine D2 receptor

>  <assay_chembl_id>  (195) 
CHEMBL1285353

>  <standard_relation>  (195) 
=

>  <assay_description>  (195) 
Antagonist activity at dopamine D2 receptor

>  <published_relation>  (195) 
=

>  <standard_value>  (195) 
8.71

>  <qudt_units>  (195) 
http://www.openphacts.org/units/Nanomolar

>  <target_tax_id>  (195) 
9606

>  <bao_label>  (195) 
assay format

>  <published_units>  (195) 
None

>  <pchembl_value>  (195) 
8.06

>  <published_type>  (195) 
pIC50

>  <activity_comment>  (195) 
None

$$$$

     RDKit          

 21 22  0  0  0  0  0  0  0  0999 V2000
    0.0000    0.0000    0.0000 C   0  0  0  0  0  0  0  0  0  0  0  0
    0.0000    0.0000    0.0000 C   0  0  0  0  0  0  0  0  0  0  0  0
    0.0000    0.0000    0.0000 N   0  0  0  0  0  0  0  0  0  0  0  0
    0.0000    0.0000    0.0000 C   0  0  0  0  0  0  0  0  0  0  0  0
    0.0000    0.0000    0.0000 C   0  0  0  0  0  0  0  0  0  0  0  0
    0.0000    0.0000    0.0000 C   0  0  0  0  0  0  0  0  0  0  0  0
    0.0000    0.0000    0.0000 C   0  0  0  0  0  0  0  0  0  0  0  0
    0.0000    0.0000    0.0000 C   0  0  0  0  0  0  0  0  0  0  0  0
    0.0000    0.0000    0.0000 N   0  0  0  0  0  0  0  0  0  0  0  0
    0.0000    0.0000    0.0000 C   0  0  0  0  0  0  0  0  0  0  0  0
    0.0000    0.0000    0.0000 O   0  0  0  0  0  0  0  0  0  0  0  0
    0.0000    0.0000    0.0000 C   0  0  0  0  0  0  0  0  0  0  0  0
    0.0000    0.0000    0.0000 C   0  0  0  0  0  0  0  0  0  0  0  0
    0.0000    0.0000    0.0000 C   0  0  0  0  0  0  0  0  0  0  0  0
    0.0000    0.0000    0.0000 F   0  0  0  0  0  0  0  0  0  0  0  0
    0.0000    0.0000    0.0000 C   0  0  0  0  0  0  0  0  0  0  0  0
    0.0000    0.0000    0.0000 C   0  0  0  0  0  0  0  0  0  0  0  0
    0.0000    0.0000    0.0000 O   0  0  0  0  0  0  0  0  0  0  0  0
    0.0000    0.0000    0.0000 C   0  0  0  0  0  0  0  0  0  0  0  0
    0.0000    0.0000    0.0000 O   0  0  0  0  0  0  0  0  0  0  0  0
    0.0000    0.0000    0.0000 C   0  0  0  0  0  0  0  0  0  0  0  0
  1  2  1  0
  2  3  1  0
  3  4  1  0
  4  5  1  0
  5  6  1  0
  6  7  1  0
  7  8  1  0
  8  9  1  0
  9 10  1  0
 10 11  2  0
 10 12  1  0
 12 13  2  0
 13 14  1  0
 14 15  1  0
 14 16  2  0
 16 17  1  0
 17 18  1  0
 17 19  2  0
 19 20  1  0
 20 21  1  0
  7  3  1  0
 19 12  1  0
M  END
>  <pIC50>  (196) 
6.44

>  <ChEMBL_ID>  (196) 
CHEMBL1276401

>  <document_journal>  (196) 
Eur. J. Med. Chem.

>  <bao_endpoint>  (196) 
BAO_0000190

>  <potential_duplicate>  (196) 
False

>  <uo_units>  (196) 
UO_0000065

>  <canonical_smiles>  (196) 
CCN1CCC[C@H]1CNC(=O)c2cc(F)cc(O)c2OC

>  <parent_molecule_chembl_id>  (196) 
CHEMBL1276401

>  <assay_type>  (196) 
F

>  <src_id>  (196) 
1

>  <ligand_efficiency>  (196) 
None

>  <standard_flag>  (196) 
True

>  <molecule_chembl_id>  (196) 
CHEMBL1276401

>  <target_organism>  (196) 
Homo sapiens

>  <standard_units>  (196) 
nM

>  <record_id>  (196) 
970166

>  <document_chembl_id>  (196) 
CHEMBL1275273

>  <bao_format>  (196) 
BAO_0000019

>  <data_validity_description>  (196) 
None

>  <activity_id>  (196) 
3550736

>  <standard_type>  (196) 
IC50

>  <target_chembl_id>  (196) 
CHEMBL217

>  <data_validity_comment>  (196) 
None

>  <published_value>  (196) 
6.44

>  <document_year>  (196) 
2010

>  <target_pref_name>  (196) 
Dopamine D2 receptor

>  <assay_chembl_id>  (196) 
CHEMBL1285353

>  <standard_relation>  (196) 
=

>  <assay_description>  (196) 
Antagonist activity at dopamine D2 receptor

>  <published_relation>  (196) 
=

>  <standard_value>  (196) 
363.08

>  <qudt_units>  (196) 
http://www.openphacts.org/units/Nanomolar

>  <target_tax_id>  (196) 
9606

>  <bao_label>  (196) 
assay format

>  <published_units>  (196) 
None

>  <pchembl_value>  (196) 
6.44

>  <published_type>  (196) 
pIC50

>  <activity_comment>  (196) 
None

$$$$

     RDKit          

 21 22  0  0  0  0  0  0  0  0999 V2000
    0.0000    0.0000    0.0000 C   0  0  0  0  0  0  0  0  0  0  0  0
    0.0000    0.0000    0.0000 C   0  0  0  0  0  0  0  0  0  0  0  0
    0.0000    0.0000    0.0000 N   0  0  0  0  0  0  0  0  0  0  0  0
    0.0000    0.0000    0.0000 C   0  0  0  0  0  0  0  0  0  0  0  0
    0.0000    0.0000    0.0000 C   0  0  0  0  0  0  0  0  0  0  0  0
    0.0000    0.0000    0.0000 C   0  0  0  0  0  0  0  0  0  0  0  0
    0.0000    0.0000    0.0000 C   0  0  0  0  0  0  0  0  0  0  0  0
    0.0000    0.0000    0.0000 C   0  0  0  0  0  0  0  0  0  0  0  0
    0.0000    0.0000    0.0000 N   0  0  0  0  0  0  0  0  0  0  0  0
    0.0000    0.0000    0.0000 C   0  0  0  0  0  0  0  0  0  0  0  0
    0.0000    0.0000    0.0000 O   0  0  0  0  0  0  0  0  0  0  0  0
    0.0000    0.0000    0.0000 C   0  0  0  0  0  0  0  0  0  0  0  0
    0.0000    0.0000    0.0000 C   0  0  0  0  0  0  0  0  0  0  0  0
    0.0000    0.0000    0.0000 C   0  0  0  0  0  0  0  0  0  0  0  0
    0.0000    0.0000    0.0000 Cl  0  0  0  0  0  0  0  0  0  0  0  0
    0.0000    0.0000    0.0000 C   0  0  0  0  0  0  0  0  0  0  0  0
    0.0000    0.0000    0.0000 C   0  0  0  0  0  0  0  0  0  0  0  0
    0.0000    0.0000    0.0000 O   0  0  0  0  0  0  0  0  0  0  0  0
    0.0000    0.0000    0.0000 C   0  0  0  0  0  0  0  0  0  0  0  0
    0.0000    0.0000    0.0000 O   0  0  0  0  0  0  0  0  0  0  0  0
    0.0000    0.0000    0.0000 C   0  0  0  0  0  0  0  0  0  0  0  0
  1  2  1  0
  2  3  1  0
  3  4  1  0
  4  5  1  0
  5  6  1  0
  6  7  1  0
  7  8  1  0
  8  9  1  0
  9 10  1  0
 10 11  2  0
 10 12  1  0
 12 13  2  0
 13 14  1  0
 14 15  1  0
 14 16  2  0
 16 17  1  0
 17 18  1  0
 17 19  2  0
 19 20  1  0
 20 21  1  0
  7  3  1  0
 19 12  1  0
M  END
>  <pIC50>  (197) 
7.41

>  <ChEMBL_ID>  (197) 
CHEMBL1276426

>  <document_journal>  (197) 
Eur. J. Med. Chem.

>  <bao_endpoint>  (197) 
BAO_0000190

>  <potential_duplicate>  (197) 
False

>  <uo_units>  (197) 
UO_0000065

>  <canonical_smiles>  (197) 
CCN1CCC[C@H]1CNC(=O)c2cc(Cl)cc(O)c2OC

>  <parent_molecule_chembl_id>  (197) 
CHEMBL1276426

>  <assay_type>  (197) 
F

>  <src_id>  (197) 
1

>  <ligand_efficiency>  (197) 
None

>  <standard_flag>  (197) 
True

>  <molecule_chembl_id>  (197) 
CHEMBL1276426

>  <target_organism>  (197) 
Homo sapiens

>  <standard_units>  (197) 
nM

>  <record_id>  (197) 
970240

>  <document_chembl_id>  (197) 
CHEMBL1275273

>  <bao_format>  (197) 
BAO_0000019

>  <data_validity_description>  (197) 
None

>  <activity_id>  (197) 
3550737

>  <standard_type>  (197) 
IC50

>  <target_chembl_id>  (197) 
CHEMBL217

>  <data_validity_comment>  (197) 
None

>  <published_value>  (197) 
7.41

>  <document_year>  (197) 
2010

>  <target_pref_name>  (197) 
Dopamine D2 receptor

>  <assay_chembl_id>  (197) 
CHEMBL1285353

>  <standard_relation>  (197) 
=

>  <assay_description>  (197) 
Antagonist activity at dopamine D2 receptor

>  <published_relation>  (197) 
=

>  <standard_value>  (197) 
38.9

>  <qudt_units>  (197) 
http://www.openphacts.org/units/Nanomolar

>  <target_tax_id>  (197) 
9606

>  <bao_label>  (197) 
assay format

>  <published_units>  (197) 
None

>  <pchembl_value>  (197) 
7.41

>  <published_type>  (197) 
pIC50

>  <activity_comment>  (197) 
None

$$$$

     RDKit          

 22 23  0  0  0  0  0  0  0  0999 V2000
    0.0000    0.0000    0.0000 C   0  0  0  0  0  0  0  0  0  0  0  0
    0.0000    0.0000    0.0000 C   0  0  0  0  0  0  0  0  0  0  0  0
    0.0000    0.0000    0.0000 N   0  0  0  0  0  0  0  0  0  0  0  0
    0.0000    0.0000    0.0000 C   0  0  0  0  0  0  0  0  0  0  0  0
    0.0000    0.0000    0.0000 C   0  0  0  0  0  0  0  0  0  0  0  0
    0.0000    0.0000    0.0000 C   0  0  0  0  0  0  0  0  0  0  0  0
    0.0000    0.0000    0.0000 C   0  0  0  0  0  0  0  0  0  0  0  0
    0.0000    0.0000    0.0000 C   0  0  0  0  0  0  0  0  0  0  0  0
    0.0000    0.0000    0.0000 N   0  0  0  0  0  0  0  0  0  0  0  0
    0.0000    0.0000    0.0000 C   0  0  0  0  0  0  0  0  0  0  0  0
    0.0000    0.0000    0.0000 O   0  0  0  0  0  0  0  0  0  0  0  0
    0.0000    0.0000    0.0000 C   0  0  0  0  0  0  0  0  0  0  0  0
    0.0000    0.0000    0.0000 C   0  0  0  0  0  0  0  0  0  0  0  0
    0.0000    0.0000    0.0000 Br  0  0  0  0  0  0  0  0  0  0  0  0
    0.0000    0.0000    0.0000 C   0  0  0  0  0  0  0  0  0  0  0  0
    0.0000    0.0000    0.0000 Cl  0  0  0  0  0  0  0  0  0  0  0  0
    0.0000    0.0000    0.0000 C   0  0  0  0  0  0  0  0  0  0  0  0
    0.0000    0.0000    0.0000 C   0  0  0  0  0  0  0  0  0  0  0  0
    0.0000    0.0000    0.0000 O   0  0  0  0  0  0  0  0  0  0  0  0
    0.0000    0.0000    0.0000 C   0  0  0  0  0  0  0  0  0  0  0  0
    0.0000    0.0000    0.0000 O   0  0  0  0  0  0  0  0  0  0  0  0
    0.0000    0.0000    0.0000 C   0  0  0  0  0  0  0  0  0  0  0  0
  1  2  1  0
  2  3  1  0
  3  4  1  0
  4  5  1  0
  5  6  1  0
  6  7  1  0
  7  8  1  0
  8  9  1  0
  9 10  1  0
 10 11  2  0
 10 12  1  0
 12 13  2  0
 13 14  1  0
 13 15  1  0
 15 16  1  0
 15 17  2  0
 17 18  1  0
 18 19  1  0
 18 20  2  0
 20 21  1  0
 21 22  1  0
  7  3  1  0
 20 12  1  0
M  END
>  <pIC50>  (198) 
7.24

>  <ChEMBL_ID>  (198) 
CHEMBL1276427

>  <document_journal>  (198) 
Eur. J. Med. Chem.

>  <bao_endpoint>  (198) 
BAO_0000190

>  <potential_duplicate>  (198) 
False

>  <uo_units>  (198) 
UO_0000065

>  <canonical_smiles>  (198) 
CCN1CCC[C@H]1CNC(=O)c2c(Br)c(Cl)cc(O)c2OC

>  <parent_molecule_chembl_id>  (198) 
CHEMBL1276427

>  <assay_type>  (198) 
F

>  <src_id>  (198) 
1

>  <ligand_efficiency>  (198) 
None

>  <standard_flag>  (198) 
True

>  <molecule_chembl_id>  (198) 
CHEMBL1276427

>  <target_organism>  (198) 
Homo sapiens

>  <standard_units>  (198) 
nM

>  <record_id>  (198) 
970241

>  <document_chembl_id>  (198) 
CHEMBL1275273

>  <bao_format>  (198) 
BAO_0000019

>  <data_validity_description>  (198) 
None

>  <activity_id>  (198) 
3550738

>  <standard_type>  (198) 
IC50

>  <target_chembl_id>  (198) 
CHEMBL217

>  <data_validity_comment>  (198) 
None

>  <published_value>  (198) 
7.24

>  <document_year>  (198) 
2010

>  <target_pref_name>  (198) 
Dopamine D2 receptor

>  <assay_chembl_id>  (198) 
CHEMBL1285353

>  <standard_relation>  (198) 
=

>  <assay_description>  (198) 
Antagonist activity at dopamine D2 receptor

>  <published_relation>  (198) 
=

>  <standard_value>  (198) 
57.54

>  <qudt_units>  (198) 
http://www.openphacts.org/units/Nanomolar

>  <target_tax_id>  (198) 
9606

>  <bao_label>  (198) 
assay format

>  <published_units>  (198) 
None

>  <pchembl_value>  (198) 
7.24

>  <published_type>  (198) 
pIC50

>  <activity_comment>  (198) 
None

$$$$

     RDKit          

 23 24  0  0  0  0  0  0  0  0999 V2000
    0.0000    0.0000    0.0000 C   0  0  0  0  0  0  0  0  0  0  0  0
    0.0000    0.0000    0.0000 C   0  0  0  0  0  0  0  0  0  0  0  0
    0.0000    0.0000    0.0000 N   0  0  0  0  0  0  0  0  0  0  0  0
    0.0000    0.0000    0.0000 C   0  0  0  0  0  0  0  0  0  0  0  0
    0.0000    0.0000    0.0000 C   0  0  0  0  0  0  0  0  0  0  0  0
    0.0000    0.0000    0.0000 C   0  0  0  0  0  0  0  0  0  0  0  0
    0.0000    0.0000    0.0000 C   0  0  0  0  0  0  0  0  0  0  0  0
    0.0000    0.0000    0.0000 C   0  0  0  0  0  0  0  0  0  0  0  0
    0.0000    0.0000    0.0000 N   0  0  0  0  0  0  0  0  0  0  0  0
    0.0000    0.0000    0.0000 C   0  0  0  0  0  0  0  0  0  0  0  0
    0.0000    0.0000    0.0000 O   0  0  0  0  0  0  0  0  0  0  0  0
    0.0000    0.0000    0.0000 C   0  0  0  0  0  0  0  0  0  0  0  0
    0.0000    0.0000    0.0000 C   0  0  0  0  0  0  0  0  0  0  0  0
    0.0000    0.0000    0.0000 C   0  0  0  0  0  0  0  0  0  0  0  0
    0.0000    0.0000    0.0000 C   0  0  0  0  0  0  0  0  0  0  0  0
    0.0000    0.0000    0.0000 C   0  0  0  0  0  0  0  0  0  0  0  0
    0.0000    0.0000    0.0000 Cl  0  0  0  0  0  0  0  0  0  0  0  0
    0.0000    0.0000    0.0000 C   0  0  0  0  0  0  0  0  0  0  0  0
    0.0000    0.0000    0.0000 C   0  0  0  0  0  0  0  0  0  0  0  0
    0.0000    0.0000    0.0000 O   0  0  0  0  0  0  0  0  0  0  0  0
    0.0000    0.0000    0.0000 C   0  0  0  0  0  0  0  0  0  0  0  0
    0.0000    0.0000    0.0000 O   0  0  0  0  0  0  0  0  0  0  0  0
    0.0000    0.0000    0.0000 C   0  0  0  0  0  0  0  0  0  0  0  0
  1  2  1  0
  2  3  1  0
  3  4  1  0
  4  5  1  0
  5  6  1  0
  6  7  1  0
  7  8  1  0
  8  9  1  0
  9 10  1  0
 10 11  2  0
 10 12  1  0
 12 13  2  0
 13 14  1  0
 14 15  1  0
 13 16  1  0
 16 17  1  0
 16 18  2  0
 18 19  1  0
 19 20  1  0
 19 21  2  0
 21 22  1  0
 22 23  1  0
  7  3  1  0
 21 12  1  0
M  END
>  <pIC50>  (199) 
7.92

>  <ChEMBL_ID>  (199) 
CHEMBL1276428

>  <document_journal>  (199) 
Eur. J. Med. Chem.

>  <bao_endpoint>  (199) 
BAO_0000190

>  <potential_duplicate>  (199) 
False

>  <uo_units>  (199) 
UO_0000065

>  <canonical_smiles>  (199) 
CCN1CCC[C@H]1CNC(=O)c2c(CC)c(Cl)cc(O)c2OC

>  <parent_molecule_chembl_id>  (199) 
CHEMBL1276428

>  <assay_type>  (199) 
F

>  <src_id>  (199) 
1

>  <ligand_efficiency>  (199) 
None

>  <standard_flag>  (199) 
True

>  <molecule_chembl_id>  (199) 
CHEMBL1276428

>  <target_organism>  (199) 
Homo sapiens

>  <standard_units>  (199) 
nM

>  <record_id>  (199) 
970242

>  <document_chembl_id>  (199) 
CHEMBL1275273

>  <bao_format>  (199) 
BAO_0000019

>  <data_validity_description>  (199) 
None

>  <activity_id>  (199) 
3550739

>  <standard_type>  (199) 
IC50

>  <target_chembl_id>  (199) 
CHEMBL217

>  <data_validity_comment>  (199) 
None

>  <published_value>  (199) 
7.92

>  <document_year>  (199) 
2010

>  <target_pref_name>  (199) 
Dopamine D2 receptor

>  <assay_chembl_id>  (199) 
CHEMBL1285353

>  <standard_relation>  (199) 
=

>  <assay_description>  (199) 
Antagonist activity at dopamine D2 receptor

>  <published_relation>  (199) 
=

>  <standard_value>  (199) 
12.02

>  <qudt_units>  (199) 
http://www.openphacts.org/units/Nanomolar

>  <target_tax_id>  (199) 
9606

>  <bao_label>  (199) 
assay format

>  <published_units>  (199) 
None

>  <pchembl_value>  (199) 
7.92

>  <published_type>  (199) 
pIC50

>  <activity_comment>  (199) 
None

$$$$

     RDKit          

 21 22  0  0  0  0  0  0  0  0999 V2000
    0.0000    0.0000    0.0000 C   0  0  0  0  0  0  0  0  0  0  0  0
    0.0000    0.0000    0.0000 C   0  0  0  0  0  0  0  0  0  0  0  0
    0.0000    0.0000    0.0000 N   0  0  0  0  0  0  0  0  0  0  0  0
    0.0000    0.0000    0.0000 C   0  0  0  0  0  0  0  0  0  0  0  0
    0.0000    0.0000    0.0000 C   0  0  0  0  0  0  0  0  0  0  0  0
    0.0000    0.0000    0.0000 C   0  0  0  0  0  0  0  0  0  0  0  0
    0.0000    0.0000    0.0000 C   0  0  0  0  0  0  0  0  0  0  0  0
    0.0000    0.0000    0.0000 C   0  0  0  0  0  0  0  0  0  0  0  0
    0.0000    0.0000    0.0000 N   0  0  0  0  0  0  0  0  0  0  0  0
    0.0000    0.0000    0.0000 C   0  0  0  0  0  0  0  0  0  0  0  0
    0.0000    0.0000    0.0000 O   0  0  0  0  0  0  0  0  0  0  0  0
    0.0000    0.0000    0.0000 C   0  0  0  0  0  0  0  0  0  0  0  0
    0.0000    0.0000    0.0000 C   0  0  0  0  0  0  0  0  0  0  0  0
    0.0000    0.0000    0.0000 C   0  0  0  0  0  0  0  0  0  0  0  0
    0.0000    0.0000    0.0000 Br  0  0  0  0  0  0  0  0  0  0  0  0
    0.0000    0.0000    0.0000 C   0  0  0  0  0  0  0  0  0  0  0  0
    0.0000    0.0000    0.0000 C   0  0  0  0  0  0  0  0  0  0  0  0
    0.0000    0.0000    0.0000 O   0  0  0  0  0  0  0  0  0  0  0  0
    0.0000    0.0000    0.0000 C   0  0  0  0  0  0  0  0  0  0  0  0
    0.0000    0.0000    0.0000 O   0  0  0  0  0  0  0  0  0  0  0  0
    0.0000    0.0000    0.0000 C   0  0  0  0  0  0  0  0  0  0  0  0
  1  2  1  0
  2  3  1  0
  3  4  1  0
  4  5  1  0
  5  6  1  0
  6  7  1  0
  7  8  1  0
  8  9  1  0
  9 10  1  0
 10 11  2  0
 10 12  1  0
 12 13  2  0
 13 14  1  0
 14 15  1  0
 14 16  2  0
 16 17  1  0
 17 18  1  0
 17 19  2  0
 19 20  1  0
 20 21  1  0
  7  3  1  0
 19 12  1  0
M  END
>  <pIC50>  (200) 
8.08

>  <ChEMBL_ID>  (200) 
CHEMBL1276459

>  <document_journal>  (200) 
Eur. J. Med. Chem.

>  <bao_endpoint>  (200) 
BAO_0000190

>  <potential_duplicate>  (200) 
False

>  <uo_units>  (200) 
UO_0000065

>  <canonical_smiles>  (200) 
CCN1CCC[C@H]1CNC(=O)c2cc(Br)cc(O)c2OC

>  <parent_molecule_chembl_id>  (200) 
CHEMBL1276459

>  <assay_type>  (200) 
F

>  <src_id>  (200) 
1

>  <ligand_efficiency>  (200) 
None

>  <standard_flag>  (200) 
True

>  <molecule_chembl_id>  (200) 
CHEMBL1276459

>  <target_organism>  (200) 
Homo sapiens

>  <standard_units>  (200) 
nM

>  <record_id>  (200) 
970317

>  <document_chembl_id>  (200) 
CHEMBL1275273

>  <bao_format>  (200) 
BAO_0000019

>  <data_validity_description>  (200) 
None

>  <activity_id>  (200) 
3550740

>  <standard_type>  (200) 
IC50

>  <target_chembl_id>  (200) 
CHEMBL217

>  <data_validity_comment>  (200) 
None

>  <published_value>  (200) 
8.08

>  <document_year>  (200) 
2010

>  <target_pref_name>  (200) 
Dopamine D2 receptor

>  <assay_chembl_id>  (200) 
CHEMBL1285353

>  <standard_relation>  (200) 
=

>  <assay_description>  (200) 
Antagonist activity at dopamine D2 receptor

>  <published_relation>  (200) 
=

>  <standard_value>  (200) 
8.318

>  <qudt_units>  (200) 
http://www.openphacts.org/units/Nanomolar

>  <target_tax_id>  (200) 
9606

>  <bao_label>  (200) 
assay format

>  <published_units>  (200) 
None

>  <pchembl_value>  (200) 
8.08

>  <published_type>  (200) 
pIC50

>  <activity_comment>  (200) 
None

$$$$

     RDKit          

 22 23  0  0  0  0  0  0  0  0999 V2000
    0.0000    0.0000    0.0000 C   0  0  0  0  0  0  0  0  0  0  0  0
    0.0000    0.0000    0.0000 C   0  0  0  0  0  0  0  0  0  0  0  0
    0.0000    0.0000    0.0000 N   0  0  0  0  0  0  0  0  0  0  0  0
    0.0000    0.0000    0.0000 C   0  0  0  0  0  0  0  0  0  0  0  0
    0.0000    0.0000    0.0000 C   0  0  0  0  0  0  0  0  0  0  0  0
    0.0000    0.0000    0.0000 C   0  0  0  0  0  0  0  0  0  0  0  0
    0.0000    0.0000    0.0000 C   0  0  0  0  0  0  0  0  0  0  0  0
    0.0000    0.0000    0.0000 C   0  0  0  0  0  0  0  0  0  0  0  0
    0.0000    0.0000    0.0000 N   0  0  0  0  0  0  0  0  0  0  0  0
    0.0000    0.0000    0.0000 C   0  0  0  0  0  0  0  0  0  0  0  0
    0.0000    0.0000    0.0000 O   0  0  0  0  0  0  0  0  0  0  0  0
    0.0000    0.0000    0.0000 C   0  0  0  0  0  0  0  0  0  0  0  0
    0.0000    0.0000    0.0000 C   0  0  0  0  0  0  0  0  0  0  0  0
    0.0000    0.0000    0.0000 Cl  0  0  0  0  0  0  0  0  0  0  0  0
    0.0000    0.0000    0.0000 C   0  0  0  0  0  0  0  0  0  0  0  0
    0.0000    0.0000    0.0000 Br  0  0  0  0  0  0  0  0  0  0  0  0
    0.0000    0.0000    0.0000 C   0  0  0  0  0  0  0  0  0  0  0  0
    0.0000    0.0000    0.0000 C   0  0  0  0  0  0  0  0  0  0  0  0
    0.0000    0.0000    0.0000 O   0  0  0  0  0  0  0  0  0  0  0  0
    0.0000    0.0000    0.0000 C   0  0  0  0  0  0  0  0  0  0  0  0
    0.0000    0.0000    0.0000 O   0  0  0  0  0  0  0  0  0  0  0  0
    0.0000    0.0000    0.0000 C   0  0  0  0  0  0  0  0  0  0  0  0
  1  2  1  0
  2  3  1  0
  3  4  1  0
  4  5  1  0
  5  6  1  0
  6  7  1  0
  7  8  1  0
  8  9  1  0
  9 10  1  0
 10 11  2  0
 10 12  1  0
 12 13  2  0
 13 14  1  0
 13 15  1  0
 15 16  1  0
 15 17  2  0
 17 18  1  0
 18 19  1  0
 18 20  2  0
 20 21  1  0
 21 22  1  0
  7  3  1  0
 20 12  1  0
M  END
>  <pIC50>  (201) 
7.77

>  <ChEMBL_ID>  (201) 
CHEMBL1276460

>  <document_journal>  (201) 
Eur. J. Med. Chem.

>  <bao_endpoint>  (201) 
BAO_0000190

>  <potential_duplicate>  (201) 
False

>  <uo_units>  (201) 
UO_0000065

>  <canonical_smiles>  (201) 
CCN1CCC[C@H]1CNC(=O)c2c(Cl)c(Br)cc(O)c2OC

>  <parent_molecule_chembl_id>  (201) 
CHEMBL1276460

>  <assay_type>  (201) 
F

>  <src_id>  (201) 
1

>  <ligand_efficiency>  (201) 
None

>  <standard_flag>  (201) 
True

>  <molecule_chembl_id>  (201) 
CHEMBL1276460

>  <target_organism>  (201) 
Homo sapiens

>  <standard_units>  (201) 
nM

>  <record_id>  (201) 
970318

>  <document_chembl_id>  (201) 
CHEMBL1275273

>  <bao_format>  (201) 
BAO_0000019

>  <data_validity_description>  (201) 
None

>  <activity_id>  (201) 
3550741

>  <standard_type>  (201) 
IC50

>  <target_chembl_id>  (201) 
CHEMBL217

>  <data_validity_comment>  (201) 
None

>  <published_value>  (201) 
7.77

>  <document_year>  (201) 
2010

>  <target_pref_name>  (201) 
Dopamine D2 receptor

>  <assay_chembl_id>  (201) 
CHEMBL1285353

>  <standard_relation>  (201) 
=

>  <assay_description>  (201) 
Antagonist activity at dopamine D2 receptor

>  <published_relation>  (201) 
=

>  <standard_value>  (201) 
16.98

>  <qudt_units>  (201) 
http://www.openphacts.org/units/Nanomolar

>  <target_tax_id>  (201) 
9606

>  <bao_label>  (201) 
assay format

>  <published_units>  (201) 
None

>  <pchembl_value>  (201) 
7.77

>  <published_type>  (201) 
pIC50

>  <activity_comment>  (201) 
None

$$$$

     RDKit          

 22 23  0  0  0  0  0  0  0  0999 V2000
    0.0000    0.0000    0.0000 C   0  0  0  0  0  0  0  0  0  0  0  0
    0.0000    0.0000    0.0000 C   0  0  0  0  0  0  0  0  0  0  0  0
    0.0000    0.0000    0.0000 N   0  0  0  0  0  0  0  0  0  0  0  0
    0.0000    0.0000    0.0000 C   0  0  0  0  0  0  0  0  0  0  0  0
    0.0000    0.0000    0.0000 C   0  0  0  0  0  0  0  0  0  0  0  0
    0.0000    0.0000    0.0000 C   0  0  0  0  0  0  0  0  0  0  0  0
    0.0000    0.0000    0.0000 C   0  0  0  0  0  0  0  0  0  0  0  0
    0.0000    0.0000    0.0000 C   0  0  0  0  0  0  0  0  0  0  0  0
    0.0000    0.0000    0.0000 N   0  0  0  0  0  0  0  0  0  0  0  0
    0.0000    0.0000    0.0000 C   0  0  0  0  0  0  0  0  0  0  0  0
    0.0000    0.0000    0.0000 O   0  0  0  0  0  0  0  0  0  0  0  0
    0.0000    0.0000    0.0000 C   0  0  0  0  0  0  0  0  0  0  0  0
    0.0000    0.0000    0.0000 C   0  0  0  0  0  0  0  0  0  0  0  0
    0.0000    0.0000    0.0000 Br  0  0  0  0  0  0  0  0  0  0  0  0
    0.0000    0.0000    0.0000 C   0  0  0  0  0  0  0  0  0  0  0  0
    0.0000    0.0000    0.0000 Br  0  0  0  0  0  0  0  0  0  0  0  0
    0.0000    0.0000    0.0000 C   0  0  0  0  0  0  0  0  0  0  0  0
    0.0000    0.0000    0.0000 C   0  0  0  0  0  0  0  0  0  0  0  0
    0.0000    0.0000    0.0000 O   0  0  0  0  0  0  0  0  0  0  0  0
    0.0000    0.0000    0.0000 C   0  0  0  0  0  0  0  0  0  0  0  0
    0.0000    0.0000    0.0000 O   0  0  0  0  0  0  0  0  0  0  0  0
    0.0000    0.0000    0.0000 C   0  0  0  0  0  0  0  0  0  0  0  0
  1  2  1  0
  2  3  1  0
  3  4  1  0
  4  5  1  0
  5  6  1  0
  6  7  1  0
  7  8  1  0
  8  9  1  0
  9 10  1  0
 10 11  2  0
 10 12  1  0
 12 13  2  0
 13 14  1  0
 13 15  1  0
 15 16  1  0
 15 17  2  0
 17 18  1  0
 18 19  1  0
 18 20  2  0
 20 21  1  0
 21 22  1  0
  7  3  1  0
 20 12  1  0
M  END
>  <pIC50>  (202) 
7.59

>  <ChEMBL_ID>  (202) 
CHEMBL1276461

>  <document_journal>  (202) 
Eur. J. Med. Chem.

>  <bao_endpoint>  (202) 
BAO_0000190

>  <potential_duplicate>  (202) 
False

>  <uo_units>  (202) 
UO_0000065

>  <canonical_smiles>  (202) 
CCN1CCC[C@H]1CNC(=O)c2c(Br)c(Br)cc(O)c2OC

>  <parent_molecule_chembl_id>  (202) 
CHEMBL1276461

>  <assay_type>  (202) 
F

>  <src_id>  (202) 
1

>  <ligand_efficiency>  (202) 
None

>  <standard_flag>  (202) 
True

>  <molecule_chembl_id>  (202) 
CHEMBL1276461

>  <target_organism>  (202) 
Homo sapiens

>  <standard_units>  (202) 
nM

>  <record_id>  (202) 
970319

>  <document_chembl_id>  (202) 
CHEMBL1275273

>  <bao_format>  (202) 
BAO_0000019

>  <data_validity_description>  (202) 
None

>  <activity_id>  (202) 
3550742

>  <standard_type>  (202) 
IC50

>  <target_chembl_id>  (202) 
CHEMBL217

>  <data_validity_comment>  (202) 
None

>  <published_value>  (202) 
7.59

>  <document_year>  (202) 
2010

>  <target_pref_name>  (202) 
Dopamine D2 receptor

>  <assay_chembl_id>  (202) 
CHEMBL1285353

>  <standard_relation>  (202) 
=

>  <assay_description>  (202) 
Antagonist activity at dopamine D2 receptor

>  <published_relation>  (202) 
=

>  <standard_value>  (202) 
25.7

>  <qudt_units>  (202) 
http://www.openphacts.org/units/Nanomolar

>  <target_tax_id>  (202) 
9606

>  <bao_label>  (202) 
assay format

>  <published_units>  (202) 
None

>  <pchembl_value>  (202) 
7.59

>  <published_type>  (202) 
pIC50

>  <activity_comment>  (202) 
None

$$$$

     RDKit          

 23 24  0  0  0  0  0  0  0  0999 V2000
    0.0000    0.0000    0.0000 C   0  0  0  0  0  0  0  0  0  0  0  0
    0.0000    0.0000    0.0000 C   0  0  0  0  0  0  0  0  0  0  0  0
    0.0000    0.0000    0.0000 N   0  0  0  0  0  0  0  0  0  0  0  0
    0.0000    0.0000    0.0000 C   0  0  0  0  0  0  0  0  0  0  0  0
    0.0000    0.0000    0.0000 C   0  0  0  0  0  0  0  0  0  0  0  0
    0.0000    0.0000    0.0000 C   0  0  0  0  0  0  0  0  0  0  0  0
    0.0000    0.0000    0.0000 C   0  0  0  0  0  0  0  0  0  0  0  0
    0.0000    0.0000    0.0000 C   0  0  0  0  0  0  0  0  0  0  0  0
    0.0000    0.0000    0.0000 N   0  0  0  0  0  0  0  0  0  0  0  0
    0.0000    0.0000    0.0000 C   0  0  0  0  0  0  0  0  0  0  0  0
    0.0000    0.0000    0.0000 O   0  0  0  0  0  0  0  0  0  0  0  0
    0.0000    0.0000    0.0000 C   0  0  0  0  0  0  0  0  0  0  0  0
    0.0000    0.0000    0.0000 C   0  0  0  0  0  0  0  0  0  0  0  0
    0.0000    0.0000    0.0000 O   0  0  0  0  0  0  0  0  0  0  0  0
    0.0000    0.0000    0.0000 C   0  0  0  0  0  0  0  0  0  0  0  0
    0.0000    0.0000    0.0000 C   0  0  0  0  0  0  0  0  0  0  0  0
    0.0000    0.0000    0.0000 O   0  0  0  0  0  0  0  0  0  0  0  0
    0.0000    0.0000    0.0000 C   0  0  0  0  0  0  0  0  0  0  0  0
    0.0000    0.0000    0.0000 C   0  0  0  0  0  0  0  0  0  0  0  0
    0.0000    0.0000    0.0000 Br  0  0  0  0  0  0  0  0  0  0  0  0
    0.0000    0.0000    0.0000 C   0  0  0  0  0  0  0  0  0  0  0  0
    0.0000    0.0000    0.0000 O   0  0  0  0  0  0  0  0  0  0  0  0
    0.0000    0.0000    0.0000 C   0  0  0  0  0  0  0  0  0  0  0  0
  1  2  1  0
  2  3  1  0
  3  4  1  0
  4  5  1  0
  5  6  1  0
  6  7  1  0
  7  8  1  0
  8  9  1  0
  9 10  1  0
 10 11  2  0
 10 12  1  0
 12 13  2  0
 13 14  1  0
 14 15  1  0
 13 16  1  0
 16 17  1  0
 16 18  2  0
 18 19  1  0
 19 20  1  0
 19 21  2  0
 21 22  1  0
 22 23  1  0
  7  3  1  0
 21 12  1  0
M  END
>  <pIC50>  (203) 
8.85

>  <ChEMBL_ID>  (203) 
CHEMBL1276494

>  <document_journal>  (203) 
Eur. J. Med. Chem.

>  <bao_endpoint>  (203) 
BAO_0000190

>  <potential_duplicate>  (203) 
False

>  <uo_units>  (203) 
UO_0000065

>  <canonical_smiles>  (203) 
CCN1CCC[C@H]1CNC(=O)c2c(OC)c(O)cc(Br)c2OC

>  <parent_molecule_chembl_id>  (203) 
CHEMBL1276494

>  <assay_type>  (203) 
F

>  <src_id>  (203) 
1

>  <ligand_efficiency>  (203) 
None

>  <standard_flag>  (203) 
True

>  <molecule_chembl_id>  (203) 
CHEMBL1276494

>  <target_organism>  (203) 
Homo sapiens

>  <standard_units>  (203) 
nM

>  <record_id>  (203) 
970396

>  <document_chembl_id>  (203) 
CHEMBL1275273

>  <bao_format>  (203) 
BAO_0000019

>  <data_validity_description>  (203) 
None

>  <activity_id>  (203) 
3550743

>  <standard_type>  (203) 
IC50

>  <target_chembl_id>  (203) 
CHEMBL217

>  <data_validity_comment>  (203) 
None

>  <published_value>  (203) 
8.85

>  <document_year>  (203) 
2010

>  <target_pref_name>  (203) 
Dopamine D2 receptor

>  <assay_chembl_id>  (203) 
CHEMBL1285353

>  <standard_relation>  (203) 
=

>  <assay_description>  (203) 
Antagonist activity at dopamine D2 receptor

>  <published_relation>  (203) 
=

>  <standard_value>  (203) 
1.413

>  <qudt_units>  (203) 
http://www.openphacts.org/units/Nanomolar

>  <target_tax_id>  (203) 
9606

>  <bao_label>  (203) 
assay format

>  <published_units>  (203) 
None

>  <pchembl_value>  (203) 
8.85

>  <published_type>  (203) 
pIC50

>  <activity_comment>  (203) 
None

$$$$

     RDKit          

 24 25  0  0  0  0  0  0  0  0999 V2000
    0.0000    0.0000    0.0000 C   0  0  0  0  0  0  0  0  0  0  0  0
    0.0000    0.0000    0.0000 C   0  0  0  0  0  0  0  0  0  0  0  0
    0.0000    0.0000    0.0000 N   0  0  0  0  0  0  0  0  0  0  0  0
    0.0000    0.0000    0.0000 C   0  0  0  0  0  0  0  0  0  0  0  0
    0.0000    0.0000    0.0000 C   0  0  0  0  0  0  0  0  0  0  0  0
    0.0000    0.0000    0.0000 C   0  0  0  0  0  0  0  0  0  0  0  0
    0.0000    0.0000    0.0000 C   0  0  0  0  0  0  0  0  0  0  0  0
    0.0000    0.0000    0.0000 C   0  0  0  0  0  0  0  0  0  0  0  0
    0.0000    0.0000    0.0000 N   0  0  0  0  0  0  0  0  0  0  0  0
    0.0000    0.0000    0.0000 C   0  0  0  0  0  0  0  0  0  0  0  0
    0.0000    0.0000    0.0000 O   0  0  0  0  0  0  0  0  0  0  0  0
    0.0000    0.0000    0.0000 C   0  0  0  0  0  0  0  0  0  0  0  0
    0.0000    0.0000    0.0000 C   0  0  0  0  0  0  0  0  0  0  0  0
    0.0000    0.0000    0.0000 O   0  0  0  0  0  0  0  0  0  0  0  0
    0.0000    0.0000    0.0000 C   0  0  0  0  0  0  0  0  0  0  0  0
    0.0000    0.0000    0.0000 C   0  0  0  0  0  0  0  0  0  0  0  0
    0.0000    0.0000    0.0000 O   0  0  0  0  0  0  0  0  0  0  0  0
    0.0000    0.0000    0.0000 C   0  0  0  0  0  0  0  0  0  0  0  0
    0.0000    0.0000    0.0000 C   0  0  0  0  0  0  0  0  0  0  0  0
    0.0000    0.0000    0.0000 Br  0  0  0  0  0  0  0  0  0  0  0  0
    0.0000    0.0000    0.0000 C   0  0  0  0  0  0  0  0  0  0  0  0
    0.0000    0.0000    0.0000 N   0  0  0  0  0  0  0  0  0  0  0  0
    0.0000    0.0000    0.0000 O   0  0  0  0  0  0  0  0  0  0  0  0
    0.0000    0.0000    0.0000 O   0  0  0  0  0  0  0  0  0  0  0  0
  1  2  1  0
  2  3  1  0
  3  4  1  0
  4  5  1  0
  5  6  1  0
  6  7  1  0
  7  8  1  0
  8  9  1  0
  9 10  1  0
 10 11  2  0
 10 12  1  0
 12 13  2  0
 13 14  1  0
 14 15  1  0
 13 16  1  0
 16 17  1  0
 16 18  2  0
 18 19  1  0
 19 20  1  0
 19 21  2  0
 21 22  1  0
 22 23  2  0
 22 24  1  0
  7  3  1  0
 21 12  1  0
M  CHG  2  22   1  24  -1
M  END
>  <pIC50>  (204) 
6.73

>  <ChEMBL_ID>  (204) 
CHEMBL1276495

>  <document_journal>  (204) 
Eur. J. Med. Chem.

>  <bao_endpoint>  (204) 
BAO_0000190

>  <potential_duplicate>  (204) 
False

>  <uo_units>  (204) 
UO_0000065

>  <canonical_smiles>  (204) 
CCN1CCC[C@H]1CNC(=O)c2c(OC)c(O)cc(Br)c2[N+](=O)[O-]

>  <parent_molecule_chembl_id>  (204) 
CHEMBL1276495

>  <assay_type>  (204) 
F

>  <src_id>  (204) 
1

>  <ligand_efficiency>  (204) 
None

>  <standard_flag>  (204) 
True

>  <molecule_chembl_id>  (204) 
CHEMBL1276495

>  <target_organism>  (204) 
Homo sapiens

>  <standard_units>  (204) 
nM

>  <record_id>  (204) 
970397

>  <document_chembl_id>  (204) 
CHEMBL1275273

>  <bao_format>  (204) 
BAO_0000019

>  <data_validity_description>  (204) 
None

>  <activity_id>  (204) 
3550744

>  <standard_type>  (204) 
IC50

>  <target_chembl_id>  (204) 
CHEMBL217

>  <data_validity_comment>  (204) 
None

>  <published_value>  (204) 
6.73

>  <document_year>  (204) 
2010

>  <target_pref_name>  (204) 
Dopamine D2 receptor

>  <assay_chembl_id>  (204) 
CHEMBL1285353

>  <standard_relation>  (204) 
=

>  <assay_description>  (204) 
Antagonist activity at dopamine D2 receptor

>  <published_relation>  (204) 
=

>  <standard_value>  (204) 
186.21

>  <qudt_units>  (204) 
http://www.openphacts.org/units/Nanomolar

>  <target_tax_id>  (204) 
9606

>  <bao_label>  (204) 
assay format

>  <published_units>  (204) 
None

>  <pchembl_value>  (204) 
6.73

>  <published_type>  (204) 
pIC50

>  <activity_comment>  (204) 
None

$$$$

     RDKit          

 21 22  0  0  0  0  0  0  0  0999 V2000
    0.0000    0.0000    0.0000 C   0  0  0  0  0  0  0  0  0  0  0  0
    0.0000    0.0000    0.0000 C   0  0  0  0  0  0  0  0  0  0  0  0
    0.0000    0.0000    0.0000 N   0  0  0  0  0  0  0  0  0  0  0  0
    0.0000    0.0000    0.0000 C   0  0  0  0  0  0  0  0  0  0  0  0
    0.0000    0.0000    0.0000 C   0  0  0  0  0  0  0  0  0  0  0  0
    0.0000    0.0000    0.0000 C   0  0  0  0  0  0  0  0  0  0  0  0
    0.0000    0.0000    0.0000 C   0  0  0  0  0  0  0  0  0  0  0  0
    0.0000    0.0000    0.0000 C   0  0  0  0  0  0  0  0  0  0  0  0
    0.0000    0.0000    0.0000 N   0  0  0  0  0  0  0  0  0  0  0  0
    0.0000    0.0000    0.0000 C   0  0  0  0  0  0  0  0  0  0  0  0
    0.0000    0.0000    0.0000 O   0  0  0  0  0  0  0  0  0  0  0  0
    0.0000    0.0000    0.0000 C   0  0  0  0  0  0  0  0  0  0  0  0
    0.0000    0.0000    0.0000 C   0  0  0  0  0  0  0  0  0  0  0  0
    0.0000    0.0000    0.0000 C   0  0  0  0  0  0  0  0  0  0  0  0
    0.0000    0.0000    0.0000 I   0  0  0  0  0  0  0  0  0  0  0  0
    0.0000    0.0000    0.0000 C   0  0  0  0  0  0  0  0  0  0  0  0
    0.0000    0.0000    0.0000 C   0  0  0  0  0  0  0  0  0  0  0  0
    0.0000    0.0000    0.0000 O   0  0  0  0  0  0  0  0  0  0  0  0
    0.0000    0.0000    0.0000 C   0  0  0  0  0  0  0  0  0  0  0  0
    0.0000    0.0000    0.0000 O   0  0  0  0  0  0  0  0  0  0  0  0
    0.0000    0.0000    0.0000 C   0  0  0  0  0  0  0  0  0  0  0  0
  1  2  1  0
  2  3  1  0
  3  4  1  0
  4  5  1  0
  5  6  1  0
  6  7  1  0
  7  8  1  0
  8  9  1  0
  9 10  1  0
 10 11  2  0
 10 12  1  0
 12 13  2  0
 13 14  1  0
 14 15  1  0
 14 16  2  0
 16 17  1  0
 17 18  1  0
 17 19  2  0
 19 20  1  0
 20 21  1  0
  7  3  1  0
 19 12  1  0
M  END
>  <pIC50>  (205) 
8.52

>  <ChEMBL_ID>  (205) 
CHEMBL1276496

>  <document_journal>  (205) 
Eur. J. Med. Chem.

>  <bao_endpoint>  (205) 
BAO_0000190

>  <potential_duplicate>  (205) 
False

>  <uo_units>  (205) 
UO_0000065

>  <canonical_smiles>  (205) 
CCN1CCC[C@H]1CNC(=O)c2cc(I)cc(O)c2OC

>  <parent_molecule_chembl_id>  (205) 
CHEMBL1276496

>  <assay_type>  (205) 
F

>  <src_id>  (205) 
1

>  <ligand_efficiency>  (205) 
None

>  <standard_flag>  (205) 
True

>  <molecule_chembl_id>  (205) 
CHEMBL1276496

>  <target_organism>  (205) 
Homo sapiens

>  <standard_units>  (205) 
nM

>  <record_id>  (205) 
970398

>  <document_chembl_id>  (205) 
CHEMBL1275273

>  <bao_format>  (205) 
BAO_0000019

>  <data_validity_description>  (205) 
None

>  <activity_id>  (205) 
3550745

>  <standard_type>  (205) 
IC50

>  <target_chembl_id>  (205) 
CHEMBL217

>  <data_validity_comment>  (205) 
None

>  <published_value>  (205) 
8.52

>  <document_year>  (205) 
2010

>  <target_pref_name>  (205) 
Dopamine D2 receptor

>  <assay_chembl_id>  (205) 
CHEMBL1285353

>  <standard_relation>  (205) 
=

>  <assay_description>  (205) 
Antagonist activity at dopamine D2 receptor

>  <published_relation>  (205) 
=

>  <standard_value>  (205) 
3.02

>  <qudt_units>  (205) 
http://www.openphacts.org/units/Nanomolar

>  <target_tax_id>  (205) 
9606

>  <bao_label>  (205) 
assay format

>  <published_units>  (205) 
None

>  <pchembl_value>  (205) 
8.52

>  <published_type>  (205) 
pIC50

>  <activity_comment>  (205) 
None

$$$$

     RDKit          

 22 23  0  0  0  0  0  0  0  0999 V2000
    0.0000    0.0000    0.0000 C   0  0  0  0  0  0  0  0  0  0  0  0
    0.0000    0.0000    0.0000 C   0  0  0  0  0  0  0  0  0  0  0  0
    0.0000    0.0000    0.0000 N   0  0  0  0  0  0  0  0  0  0  0  0
    0.0000    0.0000    0.0000 C   0  0  0  0  0  0  0  0  0  0  0  0
    0.0000    0.0000    0.0000 C   0  0  0  0  0  0  0  0  0  0  0  0
    0.0000    0.0000    0.0000 C   0  0  0  0  0  0  0  0  0  0  0  0
    0.0000    0.0000    0.0000 C   0  0  0  0  0  0  0  0  0  0  0  0
    0.0000    0.0000    0.0000 C   0  0  0  0  0  0  0  0  0  0  0  0
    0.0000    0.0000    0.0000 N   0  0  0  0  0  0  0  0  0  0  0  0
    0.0000    0.0000    0.0000 C   0  0  0  0  0  0  0  0  0  0  0  0
    0.0000    0.0000    0.0000 O   0  0  0  0  0  0  0  0  0  0  0  0
    0.0000    0.0000    0.0000 C   0  0  0  0  0  0  0  0  0  0  0  0
    0.0000    0.0000    0.0000 C   0  0  0  0  0  0  0  0  0  0  0  0
    0.0000    0.0000    0.0000 Cl  0  0  0  0  0  0  0  0  0  0  0  0
    0.0000    0.0000    0.0000 C   0  0  0  0  0  0  0  0  0  0  0  0
    0.0000    0.0000    0.0000 C   0  0  0  0  0  0  0  0  0  0  0  0
    0.0000    0.0000    0.0000 C   0  0  0  0  0  0  0  0  0  0  0  0
    0.0000    0.0000    0.0000 C   0  0  0  0  0  0  0  0  0  0  0  0
    0.0000    0.0000    0.0000 O   0  0  0  0  0  0  0  0  0  0  0  0
    0.0000    0.0000    0.0000 C   0  0  0  0  0  0  0  0  0  0  0  0
    0.0000    0.0000    0.0000 O   0  0  0  0  0  0  0  0  0  0  0  0
    0.0000    0.0000    0.0000 C   0  0  0  0  0  0  0  0  0  0  0  0
  1  2  1  0
  2  3  1  0
  3  4  1  0
  4  5  1  0
  5  6  1  0
  6  7  1  0
  7  8  1  0
  8  9  1  0
  9 10  1  0
 10 11  2  0
 10 12  1  0
 12 13  2  0
 13 14  1  0
 13 15  1  0
 15 16  1  0
 15 17  2  0
 17 18  1  0
 18 19  1  0
 18 20  2  0
 20 21  1  0
 21 22  1  0
  7  3  1  0
 20 12  1  0
M  END
>  <pIC50>  (206) 
7.59

>  <ChEMBL_ID>  (206) 
CHEMBL1276527

>  <document_journal>  (206) 
Eur. J. Med. Chem.

>  <bao_endpoint>  (206) 
BAO_0000190

>  <potential_duplicate>  (206) 
False

>  <uo_units>  (206) 
UO_0000065

>  <canonical_smiles>  (206) 
CCN1CCC[C@H]1CNC(=O)c2c(Cl)c(C)cc(O)c2OC

>  <parent_molecule_chembl_id>  (206) 
CHEMBL1276527

>  <assay_type>  (206) 
F

>  <src_id>  (206) 
1

>  <ligand_efficiency>  (206) 
None

>  <standard_flag>  (206) 
True

>  <molecule_chembl_id>  (206) 
CHEMBL1276527

>  <target_organism>  (206) 
Homo sapiens

>  <standard_units>  (206) 
nM

>  <record_id>  (206) 
970474

>  <document_chembl_id>  (206) 
CHEMBL1275273

>  <bao_format>  (206) 
BAO_0000019

>  <data_validity_description>  (206) 
None

>  <activity_id>  (206) 
3550746

>  <standard_type>  (206) 
IC50

>  <target_chembl_id>  (206) 
CHEMBL217

>  <data_validity_comment>  (206) 
None

>  <published_value>  (206) 
7.59

>  <document_year>  (206) 
2010

>  <target_pref_name>  (206) 
Dopamine D2 receptor

>  <assay_chembl_id>  (206) 
CHEMBL1285353

>  <standard_relation>  (206) 
=

>  <assay_description>  (206) 
Antagonist activity at dopamine D2 receptor

>  <published_relation>  (206) 
=

>  <standard_value>  (206) 
25.7

>  <qudt_units>  (206) 
http://www.openphacts.org/units/Nanomolar

>  <target_tax_id>  (206) 
9606

>  <bao_label>  (206) 
assay format

>  <published_units>  (206) 
None

>  <pchembl_value>  (206) 
7.59

>  <published_type>  (206) 
pIC50

>  <activity_comment>  (206) 
None

$$$$

     RDKit          

 22 23  0  0  0  0  0  0  0  0999 V2000
    0.0000    0.0000    0.0000 C   0  0  0  0  0  0  0  0  0  0  0  0
    0.0000    0.0000    0.0000 C   0  0  0  0  0  0  0  0  0  0  0  0
    0.0000    0.0000    0.0000 N   0  0  0  0  0  0  0  0  0  0  0  0
    0.0000    0.0000    0.0000 C   0  0  0  0  0  0  0  0  0  0  0  0
    0.0000    0.0000    0.0000 C   0  0  0  0  0  0  0  0  0  0  0  0
    0.0000    0.0000    0.0000 C   0  0  0  0  0  0  0  0  0  0  0  0
    0.0000    0.0000    0.0000 C   0  0  0  0  0  0  0  0  0  0  0  0
    0.0000    0.0000    0.0000 C   0  0  0  0  0  0  0  0  0  0  0  0
    0.0000    0.0000    0.0000 N   0  0  0  0  0  0  0  0  0  0  0  0
    0.0000    0.0000    0.0000 C   0  0  0  0  0  0  0  0  0  0  0  0
    0.0000    0.0000    0.0000 O   0  0  0  0  0  0  0  0  0  0  0  0
    0.0000    0.0000    0.0000 C   0  0  0  0  0  0  0  0  0  0  0  0
    0.0000    0.0000    0.0000 C   0  0  0  0  0  0  0  0  0  0  0  0
    0.0000    0.0000    0.0000 C   0  0  0  0  0  0  0  0  0  0  0  0
    0.0000    0.0000    0.0000 C   0  0  0  0  0  0  0  0  0  0  0  0
    0.0000    0.0000    0.0000 C   0  0  0  0  0  0  0  0  0  0  0  0
    0.0000    0.0000    0.0000 C   0  0  0  0  0  0  0  0  0  0  0  0
    0.0000    0.0000    0.0000 C   0  0  0  0  0  0  0  0  0  0  0  0
    0.0000    0.0000    0.0000 O   0  0  0  0  0  0  0  0  0  0  0  0
    0.0000    0.0000    0.0000 C   0  0  0  0  0  0  0  0  0  0  0  0
    0.0000    0.0000    0.0000 O   0  0  0  0  0  0  0  0  0  0  0  0
    0.0000    0.0000    0.0000 C   0  0  0  0  0  0  0  0  0  0  0  0
  1  2  1  0
  2  3  1  0
  3  4  1  0
  4  5  1  0
  5  6  1  0
  6  7  1  0
  7  8  1  0
  8  9  1  0
  9 10  1  0
 10 11  2  0
 10 12  1  0
 12 13  2  0
 13 14  1  0
 13 15  1  0
 15 16  1  0
 15 17  2  0
 17 18  1  0
 18 19  1  0
 18 20  2  0
 20 21  1  0
 21 22  1  0
  7  3  1  0
 20 12  1  0
M  END
>  <pIC50>  (207) 
8.11

>  <ChEMBL_ID>  (207) 
CHEMBL1276528

>  <document_journal>  (207) 
Eur. J. Med. Chem.

>  <bao_endpoint>  (207) 
BAO_0000190

>  <potential_duplicate>  (207) 
False

>  <uo_units>  (207) 
UO_0000065

>  <canonical_smiles>  (207) 
CCN1CCC[C@H]1CNC(=O)c2c(C)c(C)cc(O)c2OC

>  <parent_molecule_chembl_id>  (207) 
CHEMBL1276528

>  <assay_type>  (207) 
F

>  <src_id>  (207) 
1

>  <ligand_efficiency>  (207) 
None

>  <standard_flag>  (207) 
True

>  <molecule_chembl_id>  (207) 
CHEMBL1276528

>  <target_organism>  (207) 
Homo sapiens

>  <standard_units>  (207) 
nM

>  <record_id>  (207) 
970475

>  <document_chembl_id>  (207) 
CHEMBL1275273

>  <bao_format>  (207) 
BAO_0000019

>  <data_validity_description>  (207) 
None

>  <activity_id>  (207) 
3550747

>  <standard_type>  (207) 
IC50

>  <target_chembl_id>  (207) 
CHEMBL217

>  <data_validity_comment>  (207) 
None

>  <published_value>  (207) 
8.11

>  <document_year>  (207) 
2010

>  <target_pref_name>  (207) 
Dopamine D2 receptor

>  <assay_chembl_id>  (207) 
CHEMBL1285353

>  <standard_relation>  (207) 
=

>  <assay_description>  (207) 
Antagonist activity at dopamine D2 receptor

>  <published_relation>  (207) 
=

>  <standard_value>  (207) 
7.762

>  <qudt_units>  (207) 
http://www.openphacts.org/units/Nanomolar

>  <target_tax_id>  (207) 
9606

>  <bao_label>  (207) 
assay format

>  <published_units>  (207) 
None

>  <pchembl_value>  (207) 
8.11

>  <published_type>  (207) 
pIC50

>  <activity_comment>  (207) 
None

$$$$

     RDKit          

 22 23  0  0  0  0  0  0  0  0999 V2000
    0.0000    0.0000    0.0000 C   0  0  0  0  0  0  0  0  0  0  0  0
    0.0000    0.0000    0.0000 C   0  0  0  0  0  0  0  0  0  0  0  0
    0.0000    0.0000    0.0000 N   0  0  0  0  0  0  0  0  0  0  0  0
    0.0000    0.0000    0.0000 C   0  0  0  0  0  0  0  0  0  0  0  0
    0.0000    0.0000    0.0000 C   0  0  0  0  0  0  0  0  0  0  0  0
    0.0000    0.0000    0.0000 C   0  0  0  0  0  0  0  0  0  0  0  0
    0.0000    0.0000    0.0000 C   0  0  0  0  0  0  0  0  0  0  0  0
    0.0000    0.0000    0.0000 C   0  0  0  0  0  0  0  0  0  0  0  0
    0.0000    0.0000    0.0000 N   0  0  0  0  0  0  0  0  0  0  0  0
    0.0000    0.0000    0.0000 C   0  0  0  0  0  0  0  0  0  0  0  0
    0.0000    0.0000    0.0000 O   0  0  0  0  0  0  0  0  0  0  0  0
    0.0000    0.0000    0.0000 C   0  0  0  0  0  0  0  0  0  0  0  0
    0.0000    0.0000    0.0000 C   0  0  0  0  0  0  0  0  0  0  0  0
    0.0000    0.0000    0.0000 C   0  0  0  0  0  0  0  0  0  0  0  0
    0.0000    0.0000    0.0000 C   0  0  0  0  0  0  0  0  0  0  0  0
    0.0000    0.0000    0.0000 C   0  0  0  0  0  0  0  0  0  0  0  0
    0.0000    0.0000    0.0000 C   0  0  0  0  0  0  0  0  0  0  0  0
    0.0000    0.0000    0.0000 C   0  0  0  0  0  0  0  0  0  0  0  0
    0.0000    0.0000    0.0000 O   0  0  0  0  0  0  0  0  0  0  0  0
    0.0000    0.0000    0.0000 C   0  0  0  0  0  0  0  0  0  0  0  0
    0.0000    0.0000    0.0000 O   0  0  0  0  0  0  0  0  0  0  0  0
    0.0000    0.0000    0.0000 C   0  0  0  0  0  0  0  0  0  0  0  0
  1  2  1  0
  2  3  1  0
  3  4  1  0
  4  5  1  0
  5  6  1  0
  6  7  1  0
  7  8  1  0
  8  9  1  0
  9 10  1  0
 10 11  2  0
 10 12  1  0
 12 13  2  0
 13 14  1  0
 14 15  1  0
 15 16  1  0
 14 17  2  0
 17 18  1  0
 18 19  1  0
 18 20  2  0
 20 21  1  0
 21 22  1  0
  7  3  1  0
 20 12  1  0
M  END
>  <pIC50>  (208) 
8.54

>  <ChEMBL_ID>  (208) 
CHEMBL1276529

>  <document_journal>  (208) 
Eur. J. Med. Chem.

>  <bao_endpoint>  (208) 
BAO_0000190

>  <potential_duplicate>  (208) 
False

>  <uo_units>  (208) 
UO_0000065

>  <canonical_smiles>  (208) 
CCN1CCC[C@H]1CNC(=O)c2cc(CC)cc(O)c2OC

>  <parent_molecule_chembl_id>  (208) 
CHEMBL1276529

>  <assay_type>  (208) 
F

>  <src_id>  (208) 
1

>  <ligand_efficiency>  (208) 
None

>  <standard_flag>  (208) 
True

>  <molecule_chembl_id>  (208) 
CHEMBL1276529

>  <target_organism>  (208) 
Homo sapiens

>  <standard_units>  (208) 
nM

>  <record_id>  (208) 
970476

>  <document_chembl_id>  (208) 
CHEMBL1275273

>  <bao_format>  (208) 
BAO_0000019

>  <data_validity_description>  (208) 
None

>  <activity_id>  (208) 
3550748

>  <standard_type>  (208) 
IC50

>  <target_chembl_id>  (208) 
CHEMBL217

>  <data_validity_comment>  (208) 
None

>  <published_value>  (208) 
8.54

>  <document_year>  (208) 
2010

>  <target_pref_name>  (208) 
Dopamine D2 receptor

>  <assay_chembl_id>  (208) 
CHEMBL1285353

>  <standard_relation>  (208) 
=

>  <assay_description>  (208) 
Antagonist activity at dopamine D2 receptor

>  <published_relation>  (208) 
=

>  <standard_value>  (208) 
2.884

>  <qudt_units>  (208) 
http://www.openphacts.org/units/Nanomolar

>  <target_tax_id>  (208) 
9606

>  <bao_label>  (208) 
assay format

>  <published_units>  (208) 
None

>  <pchembl_value>  (208) 
8.54

>  <published_type>  (208) 
pIC50

>  <activity_comment>  (208) 
None

$$$$

     RDKit          

 23 24  0  0  0  0  0  0  0  0999 V2000
    0.0000    0.0000    0.0000 C   0  0  0  0  0  0  0  0  0  0  0  0
    0.0000    0.0000    0.0000 C   0  0  0  0  0  0  0  0  0  0  0  0
    0.0000    0.0000    0.0000 N   0  0  0  0  0  0  0  0  0  0  0  0
    0.0000    0.0000    0.0000 C   0  0  0  0  0  0  0  0  0  0  0  0
    0.0000    0.0000    0.0000 C   0  0  0  0  0  0  0  0  0  0  0  0
    0.0000    0.0000    0.0000 C   0  0  0  0  0  0  0  0  0  0  0  0
    0.0000    0.0000    0.0000 C   0  0  0  0  0  0  0  0  0  0  0  0
    0.0000    0.0000    0.0000 C   0  0  0  0  0  0  0  0  0  0  0  0
    0.0000    0.0000    0.0000 N   0  0  0  0  0  0  0  0  0  0  0  0
    0.0000    0.0000    0.0000 C   0  0  0  0  0  0  0  0  0  0  0  0
    0.0000    0.0000    0.0000 O   0  0  0  0  0  0  0  0  0  0  0  0
    0.0000    0.0000    0.0000 C   0  0  0  0  0  0  0  0  0  0  0  0
    0.0000    0.0000    0.0000 C   0  0  0  0  0  0  0  0  0  0  0  0
    0.0000    0.0000    0.0000 F   0  0  0  0  0  0  0  0  0  0  0  0
    0.0000    0.0000    0.0000 C   0  0  0  0  0  0  0  0  0  0  0  0
    0.0000    0.0000    0.0000 C   0  0  0  0  0  0  0  0  0  0  0  0
    0.0000    0.0000    0.0000 C   0  0  0  0  0  0  0  0  0  0  0  0
    0.0000    0.0000    0.0000 C   0  0  0  0  0  0  0  0  0  0  0  0
    0.0000    0.0000    0.0000 C   0  0  0  0  0  0  0  0  0  0  0  0
    0.0000    0.0000    0.0000 O   0  0  0  0  0  0  0  0  0  0  0  0
    0.0000    0.0000    0.0000 C   0  0  0  0  0  0  0  0  0  0  0  0
    0.0000    0.0000    0.0000 O   0  0  0  0  0  0  0  0  0  0  0  0
    0.0000    0.0000    0.0000 C   0  0  0  0  0  0  0  0  0  0  0  0
  1  2  1  0
  2  3  1  0
  3  4  1  0
  4  5  1  0
  5  6  1  0
  6  7  1  0
  7  8  1  0
  8  9  1  0
  9 10  1  0
 10 11  2  0
 10 12  1  0
 12 13  2  0
 13 14  1  0
 13 15  1  0
 15 16  1  0
 16 17  1  0
 15 18  2  0
 18 19  1  0
 19 20  1  0
 19 21  2  0
 21 22  1  0
 22 23  1  0
  7  3  1  0
 21 12  1  0
M  END
>  <pIC50>  (209) 
8.82

>  <ChEMBL_ID>  (209) 
CHEMBL1276559

>  <document_journal>  (209) 
Eur. J. Med. Chem.

>  <bao_endpoint>  (209) 
BAO_0000190

>  <potential_duplicate>  (209) 
False

>  <uo_units>  (209) 
UO_0000065

>  <canonical_smiles>  (209) 
CCN1CCC[C@H]1CNC(=O)c2c(F)c(CC)cc(O)c2OC

>  <parent_molecule_chembl_id>  (209) 
CHEMBL1276559

>  <assay_type>  (209) 
F

>  <src_id>  (209) 
1

>  <ligand_efficiency>  (209) 
None

>  <standard_flag>  (209) 
True

>  <molecule_chembl_id>  (209) 
CHEMBL1276559

>  <target_organism>  (209) 
Homo sapiens

>  <standard_units>  (209) 
nM

>  <record_id>  (209) 
970552

>  <document_chembl_id>  (209) 
CHEMBL1275273

>  <bao_format>  (209) 
BAO_0000019

>  <data_validity_description>  (209) 
None

>  <activity_id>  (209) 
3550749

>  <standard_type>  (209) 
IC50

>  <target_chembl_id>  (209) 
CHEMBL217

>  <data_validity_comment>  (209) 
None

>  <published_value>  (209) 
8.82

>  <document_year>  (209) 
2010

>  <target_pref_name>  (209) 
Dopamine D2 receptor

>  <assay_chembl_id>  (209) 
CHEMBL1285353

>  <standard_relation>  (209) 
=

>  <assay_description>  (209) 
Antagonist activity at dopamine D2 receptor

>  <published_relation>  (209) 
=

>  <standard_value>  (209) 
1.514

>  <qudt_units>  (209) 
http://www.openphacts.org/units/Nanomolar

>  <target_tax_id>  (209) 
9606

>  <bao_label>  (209) 
assay format

>  <published_units>  (209) 
None

>  <pchembl_value>  (209) 
8.82

>  <published_type>  (209) 
pIC50

>  <activity_comment>  (209) 
None

$$$$

     RDKit          

 23 24  0  0  0  0  0  0  0  0999 V2000
    0.0000    0.0000    0.0000 C   0  0  0  0  0  0  0  0  0  0  0  0
    0.0000    0.0000    0.0000 C   0  0  0  0  0  0  0  0  0  0  0  0
    0.0000    0.0000    0.0000 N   0  0  0  0  0  0  0  0  0  0  0  0
    0.0000    0.0000    0.0000 C   0  0  0  0  0  0  0  0  0  0  0  0
    0.0000    0.0000    0.0000 C   0  0  0  0  0  0  0  0  0  0  0  0
    0.0000    0.0000    0.0000 C   0  0  0  0  0  0  0  0  0  0  0  0
    0.0000    0.0000    0.0000 C   0  0  0  0  0  0  0  0  0  0  0  0
    0.0000    0.0000    0.0000 C   0  0  0  0  0  0  0  0  0  0  0  0
    0.0000    0.0000    0.0000 N   0  0  0  0  0  0  0  0  0  0  0  0
    0.0000    0.0000    0.0000 C   0  0  0  0  0  0  0  0  0  0  0  0
    0.0000    0.0000    0.0000 O   0  0  0  0  0  0  0  0  0  0  0  0
    0.0000    0.0000    0.0000 C   0  0  0  0  0  0  0  0  0  0  0  0
    0.0000    0.0000    0.0000 C   0  0  0  0  0  0  0  0  0  0  0  0
    0.0000    0.0000    0.0000 Cl  0  0  0  0  0  0  0  0  0  0  0  0
    0.0000    0.0000    0.0000 C   0  0  0  0  0  0  0  0  0  0  0  0
    0.0000    0.0000    0.0000 C   0  0  0  0  0  0  0  0  0  0  0  0
    0.0000    0.0000    0.0000 C   0  0  0  0  0  0  0  0  0  0  0  0
    0.0000    0.0000    0.0000 C   0  0  0  0  0  0  0  0  0  0  0  0
    0.0000    0.0000    0.0000 C   0  0  0  0  0  0  0  0  0  0  0  0
    0.0000    0.0000    0.0000 O   0  0  0  0  0  0  0  0  0  0  0  0
    0.0000    0.0000    0.0000 C   0  0  0  0  0  0  0  0  0  0  0  0
    0.0000    0.0000    0.0000 O   0  0  0  0  0  0  0  0  0  0  0  0
    0.0000    0.0000    0.0000 C   0  0  0  0  0  0  0  0  0  0  0  0
  1  2  1  0
  2  3  1  0
  3  4  1  0
  4  5  1  0
  5  6  1  0
  6  7  1  0
  7  8  1  0
  8  9  1  0
  9 10  1  0
 10 11  2  0
 10 12  1  0
 12 13  2  0
 13 14  1  0
 13 15  1  0
 15 16  1  0
 16 17  1  0
 15 18  2  0
 18 19  1  0
 19 20  1  0
 19 21  2  0
 21 22  1  0
 22 23  1  0
  7  3  1  0
 21 12  1  0
M  END
>  <pIC50>  (210) 
9.04

>  <ChEMBL_ID>  (210) 
CHEMBL1276560

>  <document_journal>  (210) 
Eur. J. Med. Chem.

>  <bao_endpoint>  (210) 
BAO_0000190

>  <potential_duplicate>  (210) 
False

>  <uo_units>  (210) 
UO_0000065

>  <canonical_smiles>  (210) 
CCN1CCC[C@H]1CNC(=O)c2c(Cl)c(CC)cc(O)c2OC

>  <parent_molecule_chembl_id>  (210) 
CHEMBL1276560

>  <assay_type>  (210) 
F

>  <src_id>  (210) 
1

>  <ligand_efficiency>  (210) 
None

>  <standard_flag>  (210) 
True

>  <molecule_chembl_id>  (210) 
CHEMBL1276560

>  <target_organism>  (210) 
Homo sapiens

>  <standard_units>  (210) 
nM

>  <record_id>  (210) 
970553

>  <document_chembl_id>  (210) 
CHEMBL1275273

>  <bao_format>  (210) 
BAO_0000019

>  <data_validity_description>  (210) 
None

>  <activity_id>  (210) 
3550750

>  <standard_type>  (210) 
IC50

>  <target_chembl_id>  (210) 
CHEMBL217

>  <data_validity_comment>  (210) 
None

>  <published_value>  (210) 
9.04

>  <document_year>  (210) 
2010

>  <target_pref_name>  (210) 
Dopamine D2 receptor

>  <assay_chembl_id>  (210) 
CHEMBL1285353

>  <standard_relation>  (210) 
=

>  <assay_description>  (210) 
Antagonist activity at dopamine D2 receptor

>  <published_relation>  (210) 
=

>  <standard_value>  (210) 
0.912

>  <qudt_units>  (210) 
http://www.openphacts.org/units/Nanomolar

>  <target_tax_id>  (210) 
9606

>  <bao_label>  (210) 
assay format

>  <published_units>  (210) 
None

>  <pchembl_value>  (210) 
9.04

>  <published_type>  (210) 
pIC50

>  <activity_comment>  (210) 
None

$$$$

     RDKit          

 23 24  0  0  0  0  0  0  0  0999 V2000
    0.0000    0.0000    0.0000 C   0  0  0  0  0  0  0  0  0  0  0  0
    0.0000    0.0000    0.0000 C   0  0  0  0  0  0  0  0  0  0  0  0
    0.0000    0.0000    0.0000 N   0  0  0  0  0  0  0  0  0  0  0  0
    0.0000    0.0000    0.0000 C   0  0  0  0  0  0  0  0  0  0  0  0
    0.0000    0.0000    0.0000 C   0  0  0  0  0  0  0  0  0  0  0  0
    0.0000    0.0000    0.0000 C   0  0  0  0  0  0  0  0  0  0  0  0
    0.0000    0.0000    0.0000 C   0  0  0  0  0  0  0  0  0  0  0  0
    0.0000    0.0000    0.0000 C   0  0  0  0  0  0  0  0  0  0  0  0
    0.0000    0.0000    0.0000 N   0  0  0  0  0  0  0  0  0  0  0  0
    0.0000    0.0000    0.0000 C   0  0  0  0  0  0  0  0  0  0  0  0
    0.0000    0.0000    0.0000 O   0  0  0  0  0  0  0  0  0  0  0  0
    0.0000    0.0000    0.0000 C   0  0  0  0  0  0  0  0  0  0  0  0
    0.0000    0.0000    0.0000 C   0  0  0  0  0  0  0  0  0  0  0  0
    0.0000    0.0000    0.0000 Br  0  0  0  0  0  0  0  0  0  0  0  0
    0.0000    0.0000    0.0000 C   0  0  0  0  0  0  0  0  0  0  0  0
    0.0000    0.0000    0.0000 C   0  0  0  0  0  0  0  0  0  0  0  0
    0.0000    0.0000    0.0000 C   0  0  0  0  0  0  0  0  0  0  0  0
    0.0000    0.0000    0.0000 C   0  0  0  0  0  0  0  0  0  0  0  0
    0.0000    0.0000    0.0000 C   0  0  0  0  0  0  0  0  0  0  0  0
    0.0000    0.0000    0.0000 O   0  0  0  0  0  0  0  0  0  0  0  0
    0.0000    0.0000    0.0000 C   0  0  0  0  0  0  0  0  0  0  0  0
    0.0000    0.0000    0.0000 O   0  0  0  0  0  0  0  0  0  0  0  0
    0.0000    0.0000    0.0000 C   0  0  0  0  0  0  0  0  0  0  0  0
  1  2  1  0
  2  3  1  0
  3  4  1  0
  4  5  1  0
  5  6  1  0
  6  7  1  0
  7  8  1  0
  8  9  1  0
  9 10  1  0
 10 11  2  0
 10 12  1  0
 12 13  2  0
 13 14  1  0
 13 15  1  0
 15 16  1  0
 16 17  1  0
 15 18  2  0
 18 19  1  0
 19 20  1  0
 19 21  2  0
 21 22  1  0
 22 23  1  0
  7  3  1  0
 21 12  1  0
M  END
>  <pIC50>  (211) 
8.64

>  <ChEMBL_ID>  (211) 
CHEMBL1276561

>  <document_journal>  (211) 
Eur. J. Med. Chem.

>  <bao_endpoint>  (211) 
BAO_0000190

>  <potential_duplicate>  (211) 
False

>  <uo_units>  (211) 
UO_0000065

>  <canonical_smiles>  (211) 
CCN1CCC[C@H]1CNC(=O)c2c(Br)c(CC)cc(O)c2OC

>  <parent_molecule_chembl_id>  (211) 
CHEMBL1276561

>  <assay_type>  (211) 
F

>  <src_id>  (211) 
1

>  <ligand_efficiency>  (211) 
None

>  <standard_flag>  (211) 
True

>  <molecule_chembl_id>  (211) 
CHEMBL1276561

>  <target_organism>  (211) 
Homo sapiens

>  <standard_units>  (211) 
nM

>  <record_id>  (211) 
970554

>  <document_chembl_id>  (211) 
CHEMBL1275273

>  <bao_format>  (211) 
BAO_0000019

>  <data_validity_description>  (211) 
None

>  <activity_id>  (211) 
3550751

>  <standard_type>  (211) 
IC50

>  <target_chembl_id>  (211) 
CHEMBL217

>  <data_validity_comment>  (211) 
None

>  <published_value>  (211) 
8.64

>  <document_year>  (211) 
2010

>  <target_pref_name>  (211) 
Dopamine D2 receptor

>  <assay_chembl_id>  (211) 
CHEMBL1285353

>  <standard_relation>  (211) 
=

>  <assay_description>  (211) 
Antagonist activity at dopamine D2 receptor

>  <published_relation>  (211) 
=

>  <standard_value>  (211) 
2.291

>  <qudt_units>  (211) 
http://www.openphacts.org/units/Nanomolar

>  <target_tax_id>  (211) 
9606

>  <bao_label>  (211) 
assay format

>  <published_units>  (211) 
None

>  <pchembl_value>  (211) 
8.64

>  <published_type>  (211) 
pIC50

>  <activity_comment>  (211) 
None

$$$$

     RDKit          

 23 24  0  0  0  0  0  0  0  0999 V2000
    0.0000    0.0000    0.0000 C   0  0  0  0  0  0  0  0  0  0  0  0
    0.0000    0.0000    0.0000 C   0  0  0  0  0  0  0  0  0  0  0  0
    0.0000    0.0000    0.0000 C   0  0  0  0  0  0  0  0  0  0  0  0
    0.0000    0.0000    0.0000 C   0  0  0  0  0  0  0  0  0  0  0  0
    0.0000    0.0000    0.0000 C   0  0  0  0  0  0  0  0  0  0  0  0
    0.0000    0.0000    0.0000 C   0  0  0  0  0  0  0  0  0  0  0  0
    0.0000    0.0000    0.0000 O   0  0  0  0  0  0  0  0  0  0  0  0
    0.0000    0.0000    0.0000 C   0  0  0  0  0  0  0  0  0  0  0  0
    0.0000    0.0000    0.0000 O   0  0  0  0  0  0  0  0  0  0  0  0
    0.0000    0.0000    0.0000 C   0  0  0  0  0  0  0  0  0  0  0  0
    0.0000    0.0000    0.0000 C   0  0  0  0  0  0  0  0  0  0  0  0
    0.0000    0.0000    0.0000 C   0  0  0  0  0  0  0  0  0  0  0  0
    0.0000    0.0000    0.0000 C   0  0  0  0  0  0  0  0  0  0  0  0
    0.0000    0.0000    0.0000 O   0  0  0  0  0  0  0  0  0  0  0  0
    0.0000    0.0000    0.0000 N   0  0  0  0  0  0  0  0  0  0  0  0
    0.0000    0.0000    0.0000 C   0  0  0  0  0  0  0  0  0  0  0  0
    0.0000    0.0000    0.0000 C   0  0  0  0  0  0  0  0  0  0  0  0
    0.0000    0.0000    0.0000 C   0  0  0  0  0  0  0  0  0  0  0  0
    0.0000    0.0000    0.0000 C   0  0  0  0  0  0  0  0  0  0  0  0
    0.0000    0.0000    0.0000 C   0  0  0  0  0  0  0  0  0  0  0  0
    0.0000    0.0000    0.0000 N   0  0  0  0  0  0  0  0  0  0  0  0
    0.0000    0.0000    0.0000 C   0  0  0  0  0  0  0  0  0  0  0  0
    0.0000    0.0000    0.0000 C   0  0  0  0  0  0  0  0  0  0  0  0
  1  2  1  0
  2  3  1  0
  3  4  1  0
  4  5  2  0
  5  6  1  0
  6  7  1  0
  6  8  2  0
  8  9  1  0
  9 10  1  0
  8 11  1  0
 11 12  2  0
 11 13  1  0
 13 14  2  0
 13 15  1  0
 15 16  1  0
 16 17  1  0
 17 18  1  0
 18 19  1  0
 19 20  1  0
 20 21  1  0
 21 22  1  0
 22 23  1  0
 12  4  1  0
 21 17  1  0
M  END
>  <pIC50>  (212) 
9.3

>  <ChEMBL_ID>  (212) 
CHEMBL1276585

>  <document_journal>  (212) 
Eur. J. Med. Chem.

>  <bao_endpoint>  (212) 
BAO_0000190

>  <potential_duplicate>  (212) 
False

>  <uo_units>  (212) 
UO_0000065

>  <canonical_smiles>  (212) 
CCCc1cc(O)c(OC)c(c1)C(=O)NC[C@@H]2CCCN2CC

>  <parent_molecule_chembl_id>  (212) 
CHEMBL1276585

>  <assay_type>  (212) 
F

>  <src_id>  (212) 
1

>  <ligand_efficiency>  (212) 
None

>  <standard_flag>  (212) 
True

>  <molecule_chembl_id>  (212) 
CHEMBL1276585

>  <target_organism>  (212) 
Homo sapiens

>  <standard_units>  (212) 
nM

>  <record_id>  (212) 
970630

>  <document_chembl_id>  (212) 
CHEMBL1275273

>  <bao_format>  (212) 
BAO_0000019

>  <data_validity_description>  (212) 
None

>  <activity_id>  (212) 
3550752

>  <standard_type>  (212) 
IC50

>  <target_chembl_id>  (212) 
CHEMBL217

>  <data_validity_comment>  (212) 
None

>  <published_value>  (212) 
9.3

>  <document_year>  (212) 
2010

>  <target_pref_name>  (212) 
Dopamine D2 receptor

>  <assay_chembl_id>  (212) 
CHEMBL1285353

>  <standard_relation>  (212) 
=

>  <assay_description>  (212) 
Antagonist activity at dopamine D2 receptor

>  <published_relation>  (212) 
=

>  <standard_value>  (212) 
0.5012

>  <qudt_units>  (212) 
http://www.openphacts.org/units/Nanomolar

>  <target_tax_id>  (212) 
9606

>  <bao_label>  (212) 
assay format

>  <published_units>  (212) 
None

>  <pchembl_value>  (212) 
9.3

>  <published_type>  (212) 
pIC50

>  <activity_comment>  (212) 
None

$$$$

     RDKit          

 22 23  0  0  0  0  0  0  0  0999 V2000
    0.0000    0.0000    0.0000 C   0  0  0  0  0  0  0  0  0  0  0  0
    0.0000    0.0000    0.0000 C   0  0  0  0  0  0  0  0  0  0  0  0
    0.0000    0.0000    0.0000 N   0  0  0  0  0  0  0  0  0  0  0  0
    0.0000    0.0000    0.0000 C   0  0  0  0  0  0  0  0  0  0  0  0
    0.0000    0.0000    0.0000 C   0  0  0  0  0  0  0  0  0  0  0  0
    0.0000    0.0000    0.0000 C   0  0  0  0  0  0  0  0  0  0  0  0
    0.0000    0.0000    0.0000 C   0  0  0  0  0  0  0  0  0  0  0  0
    0.0000    0.0000    0.0000 C   0  0  0  0  0  0  0  0  0  0  0  0
    0.0000    0.0000    0.0000 N   0  0  0  0  0  0  0  0  0  0  0  0
    0.0000    0.0000    0.0000 C   0  0  0  0  0  0  0  0  0  0  0  0
    0.0000    0.0000    0.0000 O   0  0  0  0  0  0  0  0  0  0  0  0
    0.0000    0.0000    0.0000 C   0  0  0  0  0  0  0  0  0  0  0  0
    0.0000    0.0000    0.0000 C   0  0  0  0  0  0  0  0  0  0  0  0
    0.0000    0.0000    0.0000 C   0  0  0  0  0  0  0  0  0  0  0  0
    0.0000    0.0000    0.0000 O   0  0  0  0  0  0  0  0  0  0  0  0
    0.0000    0.0000    0.0000 C   0  0  0  0  0  0  0  0  0  0  0  0
    0.0000    0.0000    0.0000 C   0  0  0  0  0  0  0  0  0  0  0  0
    0.0000    0.0000    0.0000 C   0  0  0  0  0  0  0  0  0  0  0  0
    0.0000    0.0000    0.0000 O   0  0  0  0  0  0  0  0  0  0  0  0
    0.0000    0.0000    0.0000 C   0  0  0  0  0  0  0  0  0  0  0  0
    0.0000    0.0000    0.0000 O   0  0  0  0  0  0  0  0  0  0  0  0
    0.0000    0.0000    0.0000 C   0  0  0  0  0  0  0  0  0  0  0  0
  1  2  1  0
  2  3  1  0
  3  4  1  0
  4  5  1  0
  5  6  1  0
  6  7  1  0
  7  8  1  0
  8  9  1  0
  9 10  1  0
 10 11  2  0
 10 12  1  0
 12 13  2  0
 13 14  1  0
 14 15  1  0
 15 16  1  0
 14 17  2  0
 17 18  1  0
 18 19  1  0
 18 20  2  0
 20 21  1  0
 21 22  1  0
  7  3  1  0
 20 12  1  0
M  END
>  <pIC50>  (213) 
6.69

>  <ChEMBL_ID>  (213) 
CHEMBL1276586

>  <document_journal>  (213) 
Eur. J. Med. Chem.

>  <bao_endpoint>  (213) 
BAO_0000190

>  <potential_duplicate>  (213) 
False

>  <uo_units>  (213) 
UO_0000065

>  <canonical_smiles>  (213) 
CCN1CCC[C@H]1CNC(=O)c2cc(OC)cc(O)c2OC

>  <parent_molecule_chembl_id>  (213) 
CHEMBL1276586

>  <assay_type>  (213) 
F

>  <src_id>  (213) 
1

>  <ligand_efficiency>  (213) 
None

>  <standard_flag>  (213) 
True

>  <molecule_chembl_id>  (213) 
CHEMBL1276586

>  <target_organism>  (213) 
Homo sapiens

>  <standard_units>  (213) 
nM

>  <record_id>  (213) 
970631

>  <document_chembl_id>  (213) 
CHEMBL1275273

>  <bao_format>  (213) 
BAO_0000019

>  <data_validity_description>  (213) 
None

>  <activity_id>  (213) 
3550753

>  <standard_type>  (213) 
IC50

>  <target_chembl_id>  (213) 
CHEMBL217

>  <data_validity_comment>  (213) 
None

>  <published_value>  (213) 
6.69

>  <document_year>  (213) 
2010

>  <target_pref_name>  (213) 
Dopamine D2 receptor

>  <assay_chembl_id>  (213) 
CHEMBL1285353

>  <standard_relation>  (213) 
=

>  <assay_description>  (213) 
Antagonist activity at dopamine D2 receptor

>  <published_relation>  (213) 
=

>  <standard_value>  (213) 
204.17

>  <qudt_units>  (213) 
http://www.openphacts.org/units/Nanomolar

>  <target_tax_id>  (213) 
9606

>  <bao_label>  (213) 
assay format

>  <published_units>  (213) 
None

>  <pchembl_value>  (213) 
6.69

>  <published_type>  (213) 
pIC50

>  <activity_comment>  (213) 
None

$$$$

     RDKit          

 23 24  0  0  0  0  0  0  0  0999 V2000
    0.0000    0.0000    0.0000 C   0  0  0  0  0  0  0  0  0  0  0  0
    0.0000    0.0000    0.0000 C   0  0  0  0  0  0  0  0  0  0  0  0
    0.0000    0.0000    0.0000 N   0  0  0  0  0  0  0  0  0  0  0  0
    0.0000    0.0000    0.0000 C   0  0  0  0  0  0  0  0  0  0  0  0
    0.0000    0.0000    0.0000 C   0  0  0  0  0  0  0  0  0  0  0  0
    0.0000    0.0000    0.0000 C   0  0  0  0  0  0  0  0  0  0  0  0
    0.0000    0.0000    0.0000 C   0  0  0  0  0  0  0  0  0  0  0  0
    0.0000    0.0000    0.0000 C   0  0  0  0  0  0  0  0  0  0  0  0
    0.0000    0.0000    0.0000 N   0  0  0  0  0  0  0  0  0  0  0  0
    0.0000    0.0000    0.0000 C   0  0  0  0  0  0  0  0  0  0  0  0
    0.0000    0.0000    0.0000 O   0  0  0  0  0  0  0  0  0  0  0  0
    0.0000    0.0000    0.0000 C   0  0  0  0  0  0  0  0  0  0  0  0
    0.0000    0.0000    0.0000 C   0  0  0  0  0  0  0  0  0  0  0  0
    0.0000    0.0000    0.0000 Br  0  0  0  0  0  0  0  0  0  0  0  0
    0.0000    0.0000    0.0000 C   0  0  0  0  0  0  0  0  0  0  0  0
    0.0000    0.0000    0.0000 O   0  0  0  0  0  0  0  0  0  0  0  0
    0.0000    0.0000    0.0000 C   0  0  0  0  0  0  0  0  0  0  0  0
    0.0000    0.0000    0.0000 C   0  0  0  0  0  0  0  0  0  0  0  0
    0.0000    0.0000    0.0000 C   0  0  0  0  0  0  0  0  0  0  0  0
    0.0000    0.0000    0.0000 O   0  0  0  0  0  0  0  0  0  0  0  0
    0.0000    0.0000    0.0000 C   0  0  0  0  0  0  0  0  0  0  0  0
    0.0000    0.0000    0.0000 O   0  0  0  0  0  0  0  0  0  0  0  0
    0.0000    0.0000    0.0000 C   0  0  0  0  0  0  0  0  0  0  0  0
  1  2  1  0
  2  3  1  0
  3  4  1  0
  4  5  1  0
  5  6  1  0
  6  7  1  0
  7  8  1  0
  8  9  1  0
  9 10  1  0
 10 11  2  0
 10 12  1  0
 12 13  2  0
 13 14  1  0
 13 15  1  0
 15 16  1  0
 16 17  1  0
 15 18  2  0
 18 19  1  0
 19 20  1  0
 19 21  2  0
 21 22  1  0
 22 23  1  0
  7  3  1  0
 21 12  1  0
M  END
>  <pIC50>  (214) 
7.17

>  <ChEMBL_ID>  (214) 
CHEMBL1276587

>  <document_journal>  (214) 
Eur. J. Med. Chem.

>  <bao_endpoint>  (214) 
BAO_0000190

>  <potential_duplicate>  (214) 
False

>  <uo_units>  (214) 
UO_0000065

>  <canonical_smiles>  (214) 
CCN1CCC[C@H]1CNC(=O)c2c(Br)c(OC)cc(O)c2OC

>  <parent_molecule_chembl_id>  (214) 
CHEMBL1276587

>  <assay_type>  (214) 
F

>  <src_id>  (214) 
1

>  <ligand_efficiency>  (214) 
None

>  <standard_flag>  (214) 
True

>  <molecule_chembl_id>  (214) 
CHEMBL1276587

>  <target_organism>  (214) 
Homo sapiens

>  <standard_units>  (214) 
nM

>  <record_id>  (214) 
970632

>  <document_chembl_id>  (214) 
CHEMBL1275273

>  <bao_format>  (214) 
BAO_0000019

>  <data_validity_description>  (214) 
None

>  <activity_id>  (214) 
3550754

>  <standard_type>  (214) 
IC50

>  <target_chembl_id>  (214) 
CHEMBL217

>  <data_validity_comment>  (214) 
None

>  <published_value>  (214) 
7.17

>  <document_year>  (214) 
2010

>  <target_pref_name>  (214) 
Dopamine D2 receptor

>  <assay_chembl_id>  (214) 
CHEMBL1285353

>  <standard_relation>  (214) 
=

>  <assay_description>  (214) 
Antagonist activity at dopamine D2 receptor

>  <published_relation>  (214) 
=

>  <standard_value>  (214) 
67.61

>  <qudt_units>  (214) 
http://www.openphacts.org/units/Nanomolar

>  <target_tax_id>  (214) 
9606

>  <bao_label>  (214) 
assay format

>  <published_units>  (214) 
None

>  <pchembl_value>  (214) 
7.17

>  <published_type>  (214) 
pIC50

>  <activity_comment>  (214) 
None

$$$$

     RDKit          

 21 22  0  0  0  0  0  0  0  0999 V2000
    0.0000    0.0000    0.0000 C   0  0  0  0  0  0  0  0  0  0  0  0
    0.0000    0.0000    0.0000 C   0  0  0  0  0  0  0  0  0  0  0  0
    0.0000    0.0000    0.0000 N   0  0  0  0  0  0  0  0  0  0  0  0
    0.0000    0.0000    0.0000 C   0  0  0  0  0  0  0  0  0  0  0  0
    0.0000    0.0000    0.0000 C   0  0  0  0  0  0  0  0  0  0  0  0
    0.0000    0.0000    0.0000 C   0  0  0  0  0  0  0  0  0  0  0  0
    0.0000    0.0000    0.0000 C   0  0  0  0  0  0  0  0  0  0  0  0
    0.0000    0.0000    0.0000 C   0  0  0  0  0  0  0  0  0  0  0  0
    0.0000    0.0000    0.0000 N   0  0  0  0  0  0  0  0  0  0  0  0
    0.0000    0.0000    0.0000 C   0  0  0  0  0  0  0  0  0  0  0  0
    0.0000    0.0000    0.0000 O   0  0  0  0  0  0  0  0  0  0  0  0
    0.0000    0.0000    0.0000 C   0  0  0  0  0  0  0  0  0  0  0  0
    0.0000    0.0000    0.0000 C   0  0  0  0  0  0  0  0  0  0  0  0
    0.0000    0.0000    0.0000 O   0  0  0  0  0  0  0  0  0  0  0  0
    0.0000    0.0000    0.0000 C   0  0  0  0  0  0  0  0  0  0  0  0
    0.0000    0.0000    0.0000 Br  0  0  0  0  0  0  0  0  0  0  0  0
    0.0000    0.0000    0.0000 C   0  0  0  0  0  0  0  0  0  0  0  0
    0.0000    0.0000    0.0000 C   0  0  0  0  0  0  0  0  0  0  0  0
    0.0000    0.0000    0.0000 C   0  0  0  0  0  0  0  0  0  0  0  0
    0.0000    0.0000    0.0000 O   0  0  0  0  0  0  0  0  0  0  0  0
    0.0000    0.0000    0.0000 C   0  0  0  0  0  0  0  0  0  0  0  0
  1  2  1  0
  2  3  1  0
  3  4  1  0
  4  5  1  0
  5  6  1  0
  6  7  1  0
  7  8  1  0
  8  9  1  0
  9 10  1  0
 10 11  2  0
 10 12  1  0
 12 13  2  0
 13 14  1  0
 13 15  1  0
 15 16  1  0
 15 17  2  0
 17 18  1  0
 18 19  2  0
 19 20  1  0
 20 21  1  0
  7  3  1  0
 19 12  1  0
M  END
>  <pIC50>  (215) 
8.0

>  <ChEMBL_ID>  (215) 
CHEMBL283099

>  <document_journal>  (215) 
Eur. J. Med. Chem.

>  <bao_endpoint>  (215) 
BAO_0000190

>  <potential_duplicate>  (215) 
False

>  <uo_units>  (215) 
UO_0000065

>  <canonical_smiles>  (215) 
CCN1CCC[C@H]1CNC(=O)c2c(O)c(Br)ccc2OC

>  <parent_molecule_chembl_id>  (215) 
CHEMBL283099

>  <assay_type>  (215) 
F

>  <src_id>  (215) 
1

>  <ligand_efficiency>  (215) 
None

>  <standard_flag>  (215) 
True

>  <molecule_chembl_id>  (215) 
CHEMBL283099

>  <target_organism>  (215) 
Homo sapiens

>  <standard_units>  (215) 
nM

>  <record_id>  (215) 
970707

>  <document_chembl_id>  (215) 
CHEMBL1275273

>  <bao_format>  (215) 
BAO_0000019

>  <data_validity_description>  (215) 
None

>  <activity_id>  (215) 
3550755

>  <standard_type>  (215) 
IC50

>  <target_chembl_id>  (215) 
CHEMBL217

>  <data_validity_comment>  (215) 
None

>  <published_value>  (215) 
8

>  <document_year>  (215) 
2010

>  <target_pref_name>  (215) 
Dopamine D2 receptor

>  <assay_chembl_id>  (215) 
CHEMBL1285353

>  <standard_relation>  (215) 
=

>  <assay_description>  (215) 
Antagonist activity at dopamine D2 receptor

>  <published_relation>  (215) 
=

>  <standard_value>  (215) 
10

>  <qudt_units>  (215) 
http://www.openphacts.org/units/Nanomolar

>  <target_tax_id>  (215) 
9606

>  <bao_label>  (215) 
assay format

>  <published_units>  (215) 
None

>  <pchembl_value>  (215) 
8

>  <published_type>  (215) 
pIC50

>  <activity_comment>  (215) 
None

$$$$

     RDKit          

 24 25  0  0  0  0  0  0  0  0999 V2000
    0.0000    0.0000    0.0000 C   0  0  0  0  0  0  0  0  0  0  0  0
    0.0000    0.0000    0.0000 C   0  0  0  0  0  0  0  0  0  0  0  0
    0.0000    0.0000    0.0000 C   0  0  0  0  0  0  0  0  0  0  0  0
    0.0000    0.0000    0.0000 C   0  0  0  0  0  0  0  0  0  0  0  0
    0.0000    0.0000    0.0000 C   0  0  0  0  0  0  0  0  0  0  0  0
    0.0000    0.0000    0.0000 C   0  0  0  0  0  0  0  0  0  0  0  0
    0.0000    0.0000    0.0000 O   0  0  0  0  0  0  0  0  0  0  0  0
    0.0000    0.0000    0.0000 C   0  0  0  0  0  0  0  0  0  0  0  0
    0.0000    0.0000    0.0000 O   0  0  0  0  0  0  0  0  0  0  0  0
    0.0000    0.0000    0.0000 C   0  0  0  0  0  0  0  0  0  0  0  0
    0.0000    0.0000    0.0000 C   0  0  0  0  0  0  0  0  0  0  0  0
    0.0000    0.0000    0.0000 C   0  0  0  0  0  0  0  0  0  0  0  0
    0.0000    0.0000    0.0000 O   0  0  0  0  0  0  0  0  0  0  0  0
    0.0000    0.0000    0.0000 N   0  0  0  0  0  0  0  0  0  0  0  0
    0.0000    0.0000    0.0000 C   0  0  0  0  0  0  0  0  0  0  0  0
    0.0000    0.0000    0.0000 C   0  0  0  0  0  0  0  0  0  0  0  0
    0.0000    0.0000    0.0000 C   0  0  0  0  0  0  0  0  0  0  0  0
    0.0000    0.0000    0.0000 C   0  0  0  0  0  0  0  0  0  0  0  0
    0.0000    0.0000    0.0000 C   0  0  0  0  0  0  0  0  0  0  0  0
    0.0000    0.0000    0.0000 N   0  0  0  0  0  0  0  0  0  0  0  0
    0.0000    0.0000    0.0000 C   0  0  0  0  0  0  0  0  0  0  0  0
    0.0000    0.0000    0.0000 C   0  0  0  0  0  0  0  0  0  0  0  0
    0.0000    0.0000    0.0000 C   0  0  0  0  0  0  0  0  0  0  0  0
    0.0000    0.0000    0.0000 Cl  0  0  0  0  0  0  0  0  0  0  0  0
  1  2  1  0
  2  3  1  0
  3  4  1  0
  4  5  2  0
  5  6  1  0
  6  7  1  0
  6  8  2  0
  8  9  1  0
  9 10  1  0
  8 11  1  0
 11 12  1  0
 12 13  2  0
 12 14  1  0
 14 15  1  0
 15 16  1  0
 16 17  1  0
 17 18  1  0
 18 19  1  0
 19 20  1  0
 20 21  1  0
 21 22  1  0
 11 23  2  0
 23 24  1  0
 23  4  1  0
 20 16  1  0
M  END
>  <pIC50>  (216) 
8.49

>  <ChEMBL_ID>  (216) 
CHEMBL1276615

>  <document_journal>  (216) 
Eur. J. Med. Chem.

>  <bao_endpoint>  (216) 
BAO_0000190

>  <potential_duplicate>  (216) 
False

>  <uo_units>  (216) 
UO_0000065

>  <canonical_smiles>  (216) 
CCCc1cc(O)c(OC)c(C(=O)NC[C@@H]2CCCN2CC)c1Cl

>  <parent_molecule_chembl_id>  (216) 
CHEMBL1276615

>  <assay_type>  (216) 
F

>  <src_id>  (216) 
1

>  <ligand_efficiency>  (216) 
None

>  <standard_flag>  (216) 
True

>  <molecule_chembl_id>  (216) 
CHEMBL1276615

>  <target_organism>  (216) 
Homo sapiens

>  <standard_units>  (216) 
nM

>  <record_id>  (216) 
970708

>  <document_chembl_id>  (216) 
CHEMBL1275273

>  <bao_format>  (216) 
BAO_0000019

>  <data_validity_description>  (216) 
None

>  <activity_id>  (216) 
3550756

>  <standard_type>  (216) 
IC50

>  <target_chembl_id>  (216) 
CHEMBL217

>  <data_validity_comment>  (216) 
None

>  <published_value>  (216) 
8.49

>  <document_year>  (216) 
2010

>  <target_pref_name>  (216) 
Dopamine D2 receptor

>  <assay_chembl_id>  (216) 
CHEMBL1285353

>  <standard_relation>  (216) 
=

>  <assay_description>  (216) 
Antagonist activity at dopamine D2 receptor

>  <published_relation>  (216) 
=

>  <standard_value>  (216) 
3.236

>  <qudt_units>  (216) 
http://www.openphacts.org/units/Nanomolar

>  <target_tax_id>  (216) 
9606

>  <bao_label>  (216) 
assay format

>  <published_units>  (216) 
None

>  <pchembl_value>  (216) 
8.49

>  <published_type>  (216) 
pIC50

>  <activity_comment>  (216) 
None

$$$$

     RDKit          

 22 23  0  0  0  0  0  0  0  0999 V2000
    0.0000    0.0000    0.0000 C   0  0  0  0  0  0  0  0  0  0  0  0
    0.0000    0.0000    0.0000 C   0  0  0  0  0  0  0  0  0  0  0  0
    0.0000    0.0000    0.0000 N   0  0  0  0  0  0  0  0  0  0  0  0
    0.0000    0.0000    0.0000 C   0  0  0  0  0  0  0  0  0  0  0  0
    0.0000    0.0000    0.0000 C   0  0  0  0  0  0  0  0  0  0  0  0
    0.0000    0.0000    0.0000 C   0  0  0  0  0  0  0  0  0  0  0  0
    0.0000    0.0000    0.0000 C   0  0  0  0  0  0  0  0  0  0  0  0
    0.0000    0.0000    0.0000 C   0  0  0  0  0  0  0  0  0  0  0  0
    0.0000    0.0000    0.0000 N   0  0  0  0  0  0  0  0  0  0  0  0
    0.0000    0.0000    0.0000 C   0  0  0  0  0  0  0  0  0  0  0  0
    0.0000    0.0000    0.0000 O   0  0  0  0  0  0  0  0  0  0  0  0
    0.0000    0.0000    0.0000 C   0  0  0  0  0  0  0  0  0  0  0  0
    0.0000    0.0000    0.0000 C   0  0  0  0  0  0  0  0  0  0  0  0
    0.0000    0.0000    0.0000 Br  0  0  0  0  0  0  0  0  0  0  0  0
    0.0000    0.0000    0.0000 C   0  0  0  0  0  0  0  0  0  0  0  0
    0.0000    0.0000    0.0000 C   0  0  0  0  0  0  0  0  0  0  0  0
    0.0000    0.0000    0.0000 C   0  0  0  0  0  0  0  0  0  0  0  0
    0.0000    0.0000    0.0000 C   0  0  0  0  0  0  0  0  0  0  0  0
    0.0000    0.0000    0.0000 O   0  0  0  0  0  0  0  0  0  0  0  0
    0.0000    0.0000    0.0000 C   0  0  0  0  0  0  0  0  0  0  0  0
    0.0000    0.0000    0.0000 O   0  0  0  0  0  0  0  0  0  0  0  0
    0.0000    0.0000    0.0000 C   0  0  0  0  0  0  0  0  0  0  0  0
  1  2  1  0
  2  3  1  0
  3  4  1  0
  4  5  1  0
  5  6  1  0
  6  7  1  0
  7  8  1  0
  8  9  1  0
  9 10  1  0
 10 11  2  0
 10 12  1  0
 12 13  2  0
 13 14  1  0
 13 15  1  0
 15 16  1  0
 15 17  2  0
 17 18  1  0
 18 19  1  0
 18 20  2  0
 20 21  1  0
 21 22  1  0
  7  3  1  0
 20 12  1  0
M  END
>  <pIC50>  (217) 
8.26

>  <ChEMBL_ID>  (217) 
CHEMBL1276616

>  <document_journal>  (217) 
Eur. J. Med. Chem.

>  <bao_endpoint>  (217) 
BAO_0000190

>  <potential_duplicate>  (217) 
False

>  <uo_units>  (217) 
UO_0000065

>  <canonical_smiles>  (217) 
CCN1CCC[C@H]1CNC(=O)c2c(Br)c(C)cc(O)c2OC

>  <parent_molecule_chembl_id>  (217) 
CHEMBL1276616

>  <assay_type>  (217) 
F

>  <src_id>  (217) 
1

>  <ligand_efficiency>  (217) 
None

>  <standard_flag>  (217) 
True

>  <molecule_chembl_id>  (217) 
CHEMBL1276616

>  <target_organism>  (217) 
Homo sapiens

>  <standard_units>  (217) 
nM

>  <record_id>  (217) 
970709

>  <document_chembl_id>  (217) 
CHEMBL1275273

>  <bao_format>  (217) 
BAO_0000019

>  <data_validity_description>  (217) 
None

>  <activity_id>  (217) 
3550757

>  <standard_type>  (217) 
IC50

>  <target_chembl_id>  (217) 
CHEMBL217

>  <data_validity_comment>  (217) 
None

>  <published_value>  (217) 
8.26

>  <document_year>  (217) 
2010

>  <target_pref_name>  (217) 
Dopamine D2 receptor

>  <assay_chembl_id>  (217) 
CHEMBL1285353

>  <standard_relation>  (217) 
=

>  <assay_description>  (217) 
Antagonist activity at dopamine D2 receptor

>  <published_relation>  (217) 
=

>  <standard_value>  (217) 
5.495

>  <qudt_units>  (217) 
http://www.openphacts.org/units/Nanomolar

>  <target_tax_id>  (217) 
9606

>  <bao_label>  (217) 
assay format

>  <published_units>  (217) 
None

>  <pchembl_value>  (217) 
8.26

>  <published_type>  (217) 
pIC50

>  <activity_comment>  (217) 
None

$$$$

     RDKit          

 22 23  0  0  0  0  0  0  0  0999 V2000
    0.0000    0.0000    0.0000 C   0  0  0  0  0  0  0  0  0  0  0  0
    0.0000    0.0000    0.0000 C   0  0  0  0  0  0  0  0  0  0  0  0
    0.0000    0.0000    0.0000 N   0  0  0  0  0  0  0  0  0  0  0  0
    0.0000    0.0000    0.0000 C   0  0  0  0  0  0  0  0  0  0  0  0
    0.0000    0.0000    0.0000 C   0  0  0  0  0  0  0  0  0  0  0  0
    0.0000    0.0000    0.0000 C   0  0  0  0  0  0  0  0  0  0  0  0
    0.0000    0.0000    0.0000 C   0  0  0  0  0  0  0  0  0  0  0  0
    0.0000    0.0000    0.0000 C   0  0  0  0  0  0  0  0  0  0  0  0
    0.0000    0.0000    0.0000 N   0  0  0  0  0  0  0  0  0  0  0  0
    0.0000    0.0000    0.0000 C   0  0  0  0  0  0  0  0  0  0  0  0
    0.0000    0.0000    0.0000 O   0  0  0  0  0  0  0  0  0  0  0  0
    0.0000    0.0000    0.0000 C   0  0  0  0  0  0  0  0  0  0  0  0
    0.0000    0.0000    0.0000 C   0  0  0  0  0  0  0  0  0  0  0  0
    0.0000    0.0000    0.0000 O   0  0  0  0  0  0  0  0  0  0  0  0
    0.0000    0.0000    0.0000 C   0  0  0  0  0  0  0  0  0  0  0  0
    0.0000    0.0000    0.0000 C   0  0  0  0  0  0  0  0  0  0  0  0
    0.0000    0.0000    0.0000 C   0  0  0  0  0  0  0  0  0  0  0  0
    0.0000    0.0000    0.0000 C   0  0  0  0  0  0  0  0  0  0  0  0
    0.0000    0.0000    0.0000 C   0  0  0  0  0  0  0  0  0  0  0  0
    0.0000    0.0000    0.0000 C   0  0  0  0  0  0  0  0  0  0  0  0
    0.0000    0.0000    0.0000 O   0  0  0  0  0  0  0  0  0  0  0  0
    0.0000    0.0000    0.0000 C   0  0  0  0  0  0  0  0  0  0  0  0
  1  2  1  0
  2  3  1  0
  3  4  1  0
  4  5  1  0
  5  6  1  0
  6  7  1  0
  7  8  1  0
  8  9  1  0
  9 10  1  0
 10 11  2  0
 10 12  1  0
 12 13  2  0
 13 14  1  0
 14 15  1  0
 13 16  1  0
 16 17  2  0
 17 18  1  0
 18 19  1  0
 18 20  2  0
 20 21  1  0
 21 22  1  0
  7  3  1  0
 20 12  1  0
M  END
>  <pIC50>  (218) 
8.28

>  <ChEMBL_ID>  (218) 
CHEMBL1276645

>  <document_journal>  (218) 
Eur. J. Med. Chem.

>  <bao_endpoint>  (218) 
BAO_0000190

>  <potential_duplicate>  (218) 
False

>  <uo_units>  (218) 
UO_0000065

>  <canonical_smiles>  (218) 
CCN1CCC[C@H]1CNC(=O)c2c(OC)ccc(C)c2OC

>  <parent_molecule_chembl_id>  (218) 
CHEMBL1276645

>  <assay_type>  (218) 
F

>  <src_id>  (218) 
1

>  <ligand_efficiency>  (218) 
None

>  <standard_flag>  (218) 
True

>  <molecule_chembl_id>  (218) 
CHEMBL1276645

>  <target_organism>  (218) 
Homo sapiens

>  <standard_units>  (218) 
nM

>  <record_id>  (218) 
970784

>  <document_chembl_id>  (218) 
CHEMBL1275273

>  <bao_format>  (218) 
BAO_0000019

>  <data_validity_description>  (218) 
None

>  <activity_id>  (218) 
3550758

>  <standard_type>  (218) 
IC50

>  <target_chembl_id>  (218) 
CHEMBL217

>  <data_validity_comment>  (218) 
None

>  <published_value>  (218) 
8.28

>  <document_year>  (218) 
2010

>  <target_pref_name>  (218) 
Dopamine D2 receptor

>  <assay_chembl_id>  (218) 
CHEMBL1285353

>  <standard_relation>  (218) 
=

>  <assay_description>  (218) 
Antagonist activity at dopamine D2 receptor

>  <published_relation>  (218) 
=

>  <standard_value>  (218) 
5.248

>  <qudt_units>  (218) 
http://www.openphacts.org/units/Nanomolar

>  <target_tax_id>  (218) 
9606

>  <bao_label>  (218) 
assay format

>  <published_units>  (218) 
None

>  <pchembl_value>  (218) 
8.28

>  <published_type>  (218) 
pIC50

>  <activity_comment>  (218) 
None

$$$$

     RDKit          

 23 24  0  0  0  0  0  0  0  0999 V2000
    0.0000    0.0000    0.0000 C   0  0  0  0  0  0  0  0  0  0  0  0
    0.0000    0.0000    0.0000 C   0  0  0  0  0  0  0  0  0  0  0  0
    0.0000    0.0000    0.0000 N   0  0  0  0  0  0  0  0  0  0  0  0
    0.0000    0.0000    0.0000 C   0  0  0  0  0  0  0  0  0  0  0  0
    0.0000    0.0000    0.0000 C   0  0  0  0  0  0  0  0  0  0  0  0
    0.0000    0.0000    0.0000 C   0  0  0  0  0  0  0  0  0  0  0  0
    0.0000    0.0000    0.0000 C   0  0  0  0  0  0  0  0  0  0  0  0
    0.0000    0.0000    0.0000 C   0  0  0  0  0  0  0  0  0  0  0  0
    0.0000    0.0000    0.0000 N   0  0  0  0  0  0  0  0  0  0  0  0
    0.0000    0.0000    0.0000 C   0  0  0  0  0  0  0  0  0  0  0  0
    0.0000    0.0000    0.0000 O   0  0  0  0  0  0  0  0  0  0  0  0
    0.0000    0.0000    0.0000 C   0  0  0  0  0  0  0  0  0  0  0  0
    0.0000    0.0000    0.0000 C   0  0  0  0  0  0  0  0  0  0  0  0
    0.0000    0.0000    0.0000 C   0  0  0  0  0  0  0  0  0  0  0  0
    0.0000    0.0000    0.0000 C   0  0  0  0  0  0  0  0  0  0  0  0
    0.0000    0.0000    0.0000 C   0  0  0  0  0  0  0  0  0  0  0  0
    0.0000    0.0000    0.0000 Br  0  0  0  0  0  0  0  0  0  0  0  0
    0.0000    0.0000    0.0000 C   0  0  0  0  0  0  0  0  0  0  0  0
    0.0000    0.0000    0.0000 C   0  0  0  0  0  0  0  0  0  0  0  0
    0.0000    0.0000    0.0000 O   0  0  0  0  0  0  0  0  0  0  0  0
    0.0000    0.0000    0.0000 C   0  0  0  0  0  0  0  0  0  0  0  0
    0.0000    0.0000    0.0000 O   0  0  0  0  0  0  0  0  0  0  0  0
    0.0000    0.0000    0.0000 C   0  0  0  0  0  0  0  0  0  0  0  0
  1  2  1  0
  2  3  1  0
  3  4  1  0
  4  5  1  0
  5  6  1  0
  6  7  1  0
  7  8  1  0
  8  9  1  0
  9 10  1  0
 10 11  2  0
 10 12  1  0
 12 13  2  0
 13 14  1  0
 14 15  1  0
 13 16  1  0
 16 17  1  0
 16 18  2  0
 18 19  1  0
 19 20  1  0
 19 21  2  0
 21 22  1  0
 22 23  1  0
  7  3  1  0
 21 12  1  0
M  END
>  <pIC50>  (219) 
7.77

>  <ChEMBL_ID>  (219) 
CHEMBL1276646

>  <document_journal>  (219) 
Eur. J. Med. Chem.

>  <bao_endpoint>  (219) 
BAO_0000190

>  <potential_duplicate>  (219) 
False

>  <uo_units>  (219) 
UO_0000065

>  <canonical_smiles>  (219) 
CCN1CCC[C@H]1CNC(=O)c2c(CC)c(Br)cc(O)c2OC

>  <parent_molecule_chembl_id>  (219) 
CHEMBL1276646

>  <assay_type>  (219) 
F

>  <src_id>  (219) 
1

>  <ligand_efficiency>  (219) 
None

>  <standard_flag>  (219) 
True

>  <molecule_chembl_id>  (219) 
CHEMBL1276646

>  <target_organism>  (219) 
Homo sapiens

>  <standard_units>  (219) 
nM

>  <record_id>  (219) 
970785

>  <document_chembl_id>  (219) 
CHEMBL1275273

>  <bao_format>  (219) 
BAO_0000019

>  <data_validity_description>  (219) 
None

>  <activity_id>  (219) 
3550759

>  <standard_type>  (219) 
IC50

>  <target_chembl_id>  (219) 
CHEMBL217

>  <data_validity_comment>  (219) 
None

>  <published_value>  (219) 
7.77

>  <document_year>  (219) 
2010

>  <target_pref_name>  (219) 
Dopamine D2 receptor

>  <assay_chembl_id>  (219) 
CHEMBL1285353

>  <standard_relation>  (219) 
=

>  <assay_description>  (219) 
Antagonist activity at dopamine D2 receptor

>  <published_relation>  (219) 
=

>  <standard_value>  (219) 
16.98

>  <qudt_units>  (219) 
http://www.openphacts.org/units/Nanomolar

>  <target_tax_id>  (219) 
9606

>  <bao_label>  (219) 
assay format

>  <published_units>  (219) 
None

>  <pchembl_value>  (219) 
7.77

>  <published_type>  (219) 
pIC50

>  <activity_comment>  (219) 
None

$$$$

     RDKit          

 24 25  0  0  0  0  0  0  0  0999 V2000
    0.0000    0.0000    0.0000 C   0  0  0  0  0  0  0  0  0  0  0  0
    0.0000    0.0000    0.0000 C   0  0  0  0  0  0  0  0  0  0  0  0
    0.0000    0.0000    0.0000 N   0  0  0  0  0  0  0  0  0  0  0  0
    0.0000    0.0000    0.0000 C   0  0  0  0  0  0  0  0  0  0  0  0
    0.0000    0.0000    0.0000 C   0  0  0  0  0  0  0  0  0  0  0  0
    0.0000    0.0000    0.0000 C   0  0  0  0  0  0  0  0  0  0  0  0
    0.0000    0.0000    0.0000 C   0  0  0  0  0  0  0  0  0  0  0  0
    0.0000    0.0000    0.0000 C   0  0  0  0  0  0  0  0  0  0  0  0
    0.0000    0.0000    0.0000 N   0  0  0  0  0  0  0  0  0  0  0  0
    0.0000    0.0000    0.0000 C   0  0  0  0  0  0  0  0  0  0  0  0
    0.0000    0.0000    0.0000 O   0  0  0  0  0  0  0  0  0  0  0  0
    0.0000    0.0000    0.0000 C   0  0  0  0  0  0  0  0  0  0  0  0
    0.0000    0.0000    0.0000 C   0  0  0  0  0  0  0  0  0  0  0  0
    0.0000    0.0000    0.0000 C   0  0  0  0  0  0  0  0  0  0  0  0
    0.0000    0.0000    0.0000 C   0  0  0  0  0  0  0  0  0  0  0  0
    0.0000    0.0000    0.0000 C   0  0  0  0  0  0  0  0  0  0  0  0
    0.0000    0.0000    0.0000 C   0  0  0  0  0  0  0  0  0  0  0  0
    0.0000    0.0000    0.0000 C   0  0  0  0  0  0  0  0  0  0  0  0
    0.0000    0.0000    0.0000 C   0  0  0  0  0  0  0  0  0  0  0  0
    0.0000    0.0000    0.0000 C   0  0  0  0  0  0  0  0  0  0  0  0
    0.0000    0.0000    0.0000 O   0  0  0  0  0  0  0  0  0  0  0  0
    0.0000    0.0000    0.0000 C   0  0  0  0  0  0  0  0  0  0  0  0
    0.0000    0.0000    0.0000 O   0  0  0  0  0  0  0  0  0  0  0  0
    0.0000    0.0000    0.0000 C   0  0  0  0  0  0  0  0  0  0  0  0
  1  2  1  0
  2  3  1  0
  3  4  1  0
  4  5  1  0
  5  6  1  0
  6  7  1  0
  7  8  1  0
  8  9  1  0
  9 10  1  0
 10 11  2  0
 10 12  1  0
 12 13  2  0
 13 14  1  0
 14 15  1  0
 13 16  1  0
 16 17  1  0
 17 18  1  0
 16 19  2  0
 19 20  1  0
 20 21  1  0
 20 22  2  0
 22 23  1  0
 23 24  1  0
  7  3  1  0
 22 12  1  0
M  END
>  <pIC50>  (220) 
8.75

>  <ChEMBL_ID>  (220) 
CHEMBL1276647

>  <document_journal>  (220) 
Eur. J. Med. Chem.

>  <bao_endpoint>  (220) 
BAO_0000190

>  <potential_duplicate>  (220) 
False

>  <uo_units>  (220) 
UO_0000065

>  <canonical_smiles>  (220) 
CCN1CCC[C@H]1CNC(=O)c2c(CC)c(CC)cc(O)c2OC

>  <parent_molecule_chembl_id>  (220) 
CHEMBL1276647

>  <assay_type>  (220) 
F

>  <src_id>  (220) 
1

>  <ligand_efficiency>  (220) 
None

>  <standard_flag>  (220) 
True

>  <molecule_chembl_id>  (220) 
CHEMBL1276647

>  <target_organism>  (220) 
Homo sapiens

>  <standard_units>  (220) 
nM

>  <record_id>  (220) 
970786

>  <document_chembl_id>  (220) 
CHEMBL1275273

>  <bao_format>  (220) 
BAO_0000019

>  <data_validity_description>  (220) 
None

>  <activity_id>  (220) 
3550760

>  <standard_type>  (220) 
IC50

>  <target_chembl_id>  (220) 
CHEMBL217

>  <data_validity_comment>  (220) 
None

>  <published_value>  (220) 
8.75

>  <document_year>  (220) 
2010

>  <target_pref_name>  (220) 
Dopamine D2 receptor

>  <assay_chembl_id>  (220) 
CHEMBL1285353

>  <standard_relation>  (220) 
=

>  <assay_description>  (220) 
Antagonist activity at dopamine D2 receptor

>  <published_relation>  (220) 
=

>  <standard_value>  (220) 
1.778

>  <qudt_units>  (220) 
http://www.openphacts.org/units/Nanomolar

>  <target_tax_id>  (220) 
9606

>  <bao_label>  (220) 
assay format

>  <published_units>  (220) 
None

>  <pchembl_value>  (220) 
8.75

>  <published_type>  (220) 
pIC50

>  <activity_comment>  (220) 
None

$$$$

     RDKit          

 23 24  0  0  0  0  0  0  0  0999 V2000
    0.0000    0.0000    0.0000 C   0  0  0  0  0  0  0  0  0  0  0  0
    0.0000    0.0000    0.0000 C   0  0  0  0  0  0  0  0  0  0  0  0
    0.0000    0.0000    0.0000 N   0  0  0  0  0  0  0  0  0  0  0  0
    0.0000    0.0000    0.0000 C   0  0  0  0  0  0  0  0  0  0  0  0
    0.0000    0.0000    0.0000 C   0  0  0  0  0  0  0  0  0  0  0  0
    0.0000    0.0000    0.0000 C   0  0  0  0  0  0  0  0  0  0  0  0
    0.0000    0.0000    0.0000 C   0  0  0  0  0  0  0  0  0  0  0  0
    0.0000    0.0000    0.0000 C   0  0  0  0  0  0  0  0  0  0  0  0
    0.0000    0.0000    0.0000 N   0  0  0  0  0  0  0  0  0  0  0  0
    0.0000    0.0000    0.0000 C   0  0  0  0  0  0  0  0  0  0  0  0
    0.0000    0.0000    0.0000 O   0  0  0  0  0  0  0  0  0  0  0  0
    0.0000    0.0000    0.0000 C   0  0  0  0  0  0  0  0  0  0  0  0
    0.0000    0.0000    0.0000 C   0  0  0  0  0  0  0  0  0  0  0  0
    0.0000    0.0000    0.0000 O   0  0  0  0  0  0  0  0  0  0  0  0
    0.0000    0.0000    0.0000 C   0  0  0  0  0  0  0  0  0  0  0  0
    0.0000    0.0000    0.0000 C   0  0  0  0  0  0  0  0  0  0  0  0
    0.0000    0.0000    0.0000 C   0  0  0  0  0  0  0  0  0  0  0  0
    0.0000    0.0000    0.0000 C   0  0  0  0  0  0  0  0  0  0  0  0
    0.0000    0.0000    0.0000 C   0  0  0  0  0  0  0  0  0  0  0  0
    0.0000    0.0000    0.0000 C   0  0  0  0  0  0  0  0  0  0  0  0
    0.0000    0.0000    0.0000 C   0  0  0  0  0  0  0  0  0  0  0  0
    0.0000    0.0000    0.0000 O   0  0  0  0  0  0  0  0  0  0  0  0
    0.0000    0.0000    0.0000 C   0  0  0  0  0  0  0  0  0  0  0  0
  1  2  1  0
  2  3  1  0
  3  4  1  0
  4  5  1  0
  5  6  1  0
  6  7  1  0
  7  8  1  0
  8  9  1  0
  9 10  1  0
 10 11  2  0
 10 12  1  0
 12 13  2  0
 13 14  1  0
 14 15  1  0
 13 16  1  0
 16 17  2  0
 17 18  1  0
 18 19  1  0
 19 20  1  0
 18 21  2  0
 21 22  1  0
 22 23  1  0
  7  3  1  0
 21 12  1  0
M  END
>  <pIC50>  (221) 
8.89

>  <ChEMBL_ID>  (221) 
CHEMBL282925

>  <document_journal>  (221) 
Eur. J. Med. Chem.

>  <bao_endpoint>  (221) 
BAO_0000190

>  <potential_duplicate>  (221) 
False

>  <uo_units>  (221) 
UO_0000065

>  <canonical_smiles>  (221) 
CCN1CCC[C@H]1CNC(=O)c2c(OC)ccc(CC)c2OC

>  <parent_molecule_chembl_id>  (221) 
CHEMBL282925

>  <assay_type>  (221) 
F

>  <src_id>  (221) 
1

>  <ligand_efficiency>  (221) 
None

>  <standard_flag>  (221) 
True

>  <molecule_chembl_id>  (221) 
CHEMBL282925

>  <target_organism>  (221) 
Homo sapiens

>  <standard_units>  (221) 
nM

>  <record_id>  (221) 
970859

>  <document_chembl_id>  (221) 
CHEMBL1275273

>  <bao_format>  (221) 
BAO_0000019

>  <data_validity_description>  (221) 
None

>  <activity_id>  (221) 
3550761

>  <standard_type>  (221) 
IC50

>  <target_chembl_id>  (221) 
CHEMBL217

>  <data_validity_comment>  (221) 
None

>  <published_value>  (221) 
8.89

>  <document_year>  (221) 
2010

>  <target_pref_name>  (221) 
Dopamine D2 receptor

>  <assay_chembl_id>  (221) 
CHEMBL1285353

>  <standard_relation>  (221) 
=

>  <assay_description>  (221) 
Antagonist activity at dopamine D2 receptor

>  <published_relation>  (221) 
=

>  <standard_value>  (221) 
1.288

>  <qudt_units>  (221) 
http://www.openphacts.org/units/Nanomolar

>  <target_tax_id>  (221) 
9606

>  <bao_label>  (221) 
assay format

>  <published_units>  (221) 
None

>  <pchembl_value>  (221) 
8.89

>  <published_type>  (221) 
pIC50

>  <activity_comment>  (221) 
None

$$$$

     RDKit          

 21 22  0  0  0  0  0  0  0  0999 V2000
    0.0000    0.0000    0.0000 C   0  0  0  0  0  0  0  0  0  0  0  0
    0.0000    0.0000    0.0000 C   0  0  0  0  0  0  0  0  0  0  0  0
    0.0000    0.0000    0.0000 N   0  0  0  0  0  0  0  0  0  0  0  0
    0.0000    0.0000    0.0000 C   0  0  0  0  0  0  0  0  0  0  0  0
    0.0000    0.0000    0.0000 C   0  0  0  0  0  0  0  0  0  0  0  0
    0.0000    0.0000    0.0000 C   0  0  0  0  0  0  0  0  0  0  0  0
    0.0000    0.0000    0.0000 C   0  0  0  0  0  0  0  0  0  0  0  0
    0.0000    0.0000    0.0000 C   0  0  0  0  0  0  0  0  0  0  0  0
    0.0000    0.0000    0.0000 N   0  0  0  0  0  0  0  0  0  0  0  0
    0.0000    0.0000    0.0000 C   0  0  0  0  0  0  0  0  0  0  0  0
    0.0000    0.0000    0.0000 O   0  0  0  0  0  0  0  0  0  0  0  0
    0.0000    0.0000    0.0000 C   0  0  0  0  0  0  0  0  0  0  0  0
    0.0000    0.0000    0.0000 C   0  0  0  0  0  0  0  0  0  0  0  0
    0.0000    0.0000    0.0000 O   0  0  0  0  0  0  0  0  0  0  0  0
    0.0000    0.0000    0.0000 C   0  0  0  0  0  0  0  0  0  0  0  0
    0.0000    0.0000    0.0000 C   0  0  0  0  0  0  0  0  0  0  0  0
    0.0000    0.0000    0.0000 C   0  0  0  0  0  0  0  0  0  0  0  0
    0.0000    0.0000    0.0000 C   0  0  0  0  0  0  0  0  0  0  0  0
    0.0000    0.0000    0.0000 C   0  0  0  0  0  0  0  0  0  0  0  0
    0.0000    0.0000    0.0000 O   0  0  0  0  0  0  0  0  0  0  0  0
    0.0000    0.0000    0.0000 C   0  0  0  0  0  0  0  0  0  0  0  0
  1  2  1  0
  2  3  1  0
  3  4  1  0
  4  5  1  0
  5  6  1  0
  6  7  1  0
  7  8  1  0
  8  9  1  0
  9 10  1  0
 10 11  2  0
 10 12  1  0
 12 13  2  0
 13 14  1  0
 14 15  1  0
 13 16  1  0
 16 17  2  0
 17 18  1  0
 18 19  2  0
 19 20  1  0
 20 21  1  0
  7  3  1  0
 19 12  1  0
M  END
>  <pIC50>  (222) 
7.28

>  <ChEMBL_ID>  (222) 
CHEMBL282024

>  <document_journal>  (222) 
Eur. J. Med. Chem.

>  <bao_endpoint>  (222) 
BAO_0000190

>  <potential_duplicate>  (222) 
False

>  <uo_units>  (222) 
UO_0000065

>  <canonical_smiles>  (222) 
CCN1CCC[C@H]1CNC(=O)c2c(OC)cccc2OC

>  <parent_molecule_chembl_id>  (222) 
CHEMBL282024

>  <assay_type>  (222) 
F

>  <src_id>  (222) 
1

>  <ligand_efficiency>  (222) 
None

>  <standard_flag>  (222) 
True

>  <molecule_chembl_id>  (222) 
CHEMBL282024

>  <target_organism>  (222) 
Homo sapiens

>  <standard_units>  (222) 
nM

>  <record_id>  (222) 
970860

>  <document_chembl_id>  (222) 
CHEMBL1275273

>  <bao_format>  (222) 
BAO_0000019

>  <data_validity_description>  (222) 
None

>  <activity_id>  (222) 
3550762

>  <standard_type>  (222) 
IC50

>  <target_chembl_id>  (222) 
CHEMBL217

>  <data_validity_comment>  (222) 
None

>  <published_value>  (222) 
7.28

>  <document_year>  (222) 
2010

>  <target_pref_name>  (222) 
Dopamine D2 receptor

>  <assay_chembl_id>  (222) 
CHEMBL1285353

>  <standard_relation>  (222) 
=

>  <assay_description>  (222) 
Antagonist activity at dopamine D2 receptor

>  <published_relation>  (222) 
=

>  <standard_value>  (222) 
52.48

>  <qudt_units>  (222) 
http://www.openphacts.org/units/Nanomolar

>  <target_tax_id>  (222) 
9606

>  <bao_label>  (222) 
assay format

>  <published_units>  (222) 
None

>  <pchembl_value>  (222) 
7.28

>  <published_type>  (222) 
pIC50

>  <activity_comment>  (222) 
None

$$$$

     RDKit          

 21 22  0  0  0  0  0  0  0  0999 V2000
    0.0000    0.0000    0.0000 C   0  0  0  0  0  0  0  0  0  0  0  0
    0.0000    0.0000    0.0000 C   0  0  0  0  0  0  0  0  0  0  0  0
    0.0000    0.0000    0.0000 N   0  0  0  0  0  0  0  0  0  0  0  0
    0.0000    0.0000    0.0000 C   0  0  0  0  0  0  0  0  0  0  0  0
    0.0000    0.0000    0.0000 C   0  0  0  0  0  0  0  0  0  0  0  0
    0.0000    0.0000    0.0000 C   0  0  0  0  0  0  0  0  0  0  0  0
    0.0000    0.0000    0.0000 C   0  0  0  0  0  0  0  0  0  0  0  0
    0.0000    0.0000    0.0000 C   0  0  0  0  0  0  0  0  0  0  0  0
    0.0000    0.0000    0.0000 N   0  0  0  0  0  0  0  0  0  0  0  0
    0.0000    0.0000    0.0000 C   0  0  0  0  0  0  0  0  0  0  0  0
    0.0000    0.0000    0.0000 O   0  0  0  0  0  0  0  0  0  0  0  0
    0.0000    0.0000    0.0000 C   0  0  0  0  0  0  0  0  0  0  0  0
    0.0000    0.0000    0.0000 C   0  0  0  0  0  0  0  0  0  0  0  0
    0.0000    0.0000    0.0000 C   0  0  0  0  0  0  0  0  0  0  0  0
    0.0000    0.0000    0.0000 C   0  0  0  0  0  0  0  0  0  0  0  0
    0.0000    0.0000    0.0000 C   0  0  0  0  0  0  0  0  0  0  0  0
    0.0000    0.0000    0.0000 C   0  0  0  0  0  0  0  0  0  0  0  0
    0.0000    0.0000    0.0000 C   0  0  0  0  0  0  0  0  0  0  0  0
    0.0000    0.0000    0.0000 C   0  0  0  0  0  0  0  0  0  0  0  0
    0.0000    0.0000    0.0000 O   0  0  0  0  0  0  0  0  0  0  0  0
    0.0000    0.0000    0.0000 C   0  0  0  0  0  0  0  0  0  0  0  0
  1  2  1  0
  2  3  1  0
  3  4  1  0
  4  5  1  0
  5  6  1  0
  6  7  1  0
  7  8  1  0
  8  9  1  0
  9 10  1  0
 10 11  2  0
 10 12  1  0
 12 13  2  0
 13 14  1  0
 14 15  1  0
 15 16  1  0
 14 17  2  0
 17 18  1  0
 18 19  2  0
 19 20  1  0
 20 21  1  0
  7  3  1  0
 19 12  1  0
M  END
>  <pIC50>  (223) 
7.4

>  <ChEMBL_ID>  (223) 
CHEMBL1276677

>  <document_journal>  (223) 
Eur. J. Med. Chem.

>  <bao_endpoint>  (223) 
BAO_0000190

>  <potential_duplicate>  (223) 
False

>  <uo_units>  (223) 
UO_0000065

>  <canonical_smiles>  (223) 
CCN1CCC[C@H]1CNC(=O)c2cc(CC)ccc2OC

>  <parent_molecule_chembl_id>  (223) 
CHEMBL1276677

>  <assay_type>  (223) 
F

>  <src_id>  (223) 
1

>  <ligand_efficiency>  (223) 
None

>  <standard_flag>  (223) 
True

>  <molecule_chembl_id>  (223) 
CHEMBL1276677

>  <target_organism>  (223) 
Homo sapiens

>  <standard_units>  (223) 
nM

>  <record_id>  (223) 
970861

>  <document_chembl_id>  (223) 
CHEMBL1275273

>  <bao_format>  (223) 
BAO_0000019

>  <data_validity_description>  (223) 
None

>  <activity_id>  (223) 
3550763

>  <standard_type>  (223) 
IC50

>  <target_chembl_id>  (223) 
CHEMBL217

>  <data_validity_comment>  (223) 
None

>  <published_value>  (223) 
7.4

>  <document_year>  (223) 
2010

>  <target_pref_name>  (223) 
Dopamine D2 receptor

>  <assay_chembl_id>  (223) 
CHEMBL1285353

>  <standard_relation>  (223) 
=

>  <assay_description>  (223) 
Antagonist activity at dopamine D2 receptor

>  <published_relation>  (223) 
=

>  <standard_value>  (223) 
39.81

>  <qudt_units>  (223) 
http://www.openphacts.org/units/Nanomolar

>  <target_tax_id>  (223) 
9606

>  <bao_label>  (223) 
assay format

>  <published_units>  (223) 
None

>  <pchembl_value>  (223) 
7.4

>  <published_type>  (223) 
pIC50

>  <activity_comment>  (223) 
None

$$$$

     RDKit          

 20 21  0  0  0  0  0  0  0  0999 V2000
    0.0000    0.0000    0.0000 C   0  0  0  0  0  0  0  0  0  0  0  0
    0.0000    0.0000    0.0000 C   0  0  0  0  0  0  0  0  0  0  0  0
    0.0000    0.0000    0.0000 N   0  0  0  0  0  0  0  0  0  0  0  0
    0.0000    0.0000    0.0000 C   0  0  0  0  0  0  0  0  0  0  0  0
    0.0000    0.0000    0.0000 C   0  0  0  0  0  0  0  0  0  0  0  0
    0.0000    0.0000    0.0000 C   0  0  0  0  0  0  0  0  0  0  0  0
    0.0000    0.0000    0.0000 C   0  0  0  0  0  0  0  0  0  0  0  0
    0.0000    0.0000    0.0000 C   0  0  0  0  0  0  0  0  0  0  0  0
    0.0000    0.0000    0.0000 N   0  0  0  0  0  0  0  0  0  0  0  0
    0.0000    0.0000    0.0000 C   0  0  0  0  0  0  0  0  0  0  0  0
    0.0000    0.0000    0.0000 O   0  0  0  0  0  0  0  0  0  0  0  0
    0.0000    0.0000    0.0000 C   0  0  0  0  0  0  0  0  0  0  0  0
    0.0000    0.0000    0.0000 C   0  0  0  0  0  0  0  0  0  0  0  0
    0.0000    0.0000    0.0000 C   0  0  0  0  0  0  0  0  0  0  0  0
    0.0000    0.0000    0.0000 C   0  0  0  0  0  0  0  0  0  0  0  0
    0.0000    0.0000    0.0000 C   0  0  0  0  0  0  0  0  0  0  0  0
    0.0000    0.0000    0.0000 O   0  0  0  0  0  0  0  0  0  0  0  0
    0.0000    0.0000    0.0000 C   0  0  0  0  0  0  0  0  0  0  0  0
    0.0000    0.0000    0.0000 O   0  0  0  0  0  0  0  0  0  0  0  0
    0.0000    0.0000    0.0000 C   0  0  0  0  0  0  0  0  0  0  0  0
  1  2  1  0
  2  3  1  0
  3  4  1  0
  4  5  1  0
  5  6  1  0
  6  7  1  0
  7  8  1  0
  8  9  1  0
  9 10  1  0
 10 11  2  0
 10 12  1  0
 12 13  2  0
 13 14  1  0
 14 15  2  0
 15 16  1  0
 16 17  1  0
 16 18  2  0
 18 19  1  0
 19 20  1  0
  7  3  1  0
 18 12  1  0
M  END
>  <pIC50>  (224) 
6.5

>  <ChEMBL_ID>  (224) 
CHEMBL1276269

>  <document_journal>  (224) 
Eur. J. Med. Chem.

>  <bao_endpoint>  (224) 
BAO_0000190

>  <potential_duplicate>  (224) 
False

>  <uo_units>  (224) 
UO_0000065

>  <canonical_smiles>  (224) 
CCN1CCC[C@H]1CNC(=O)c2cccc(O)c2OC

>  <parent_molecule_chembl_id>  (224) 
CHEMBL1276269

>  <assay_type>  (224) 
F

>  <src_id>  (224) 
1

>  <ligand_efficiency>  (224) 
None

>  <standard_flag>  (224) 
True

>  <molecule_chembl_id>  (224) 
CHEMBL1276269

>  <target_organism>  (224) 
Homo sapiens

>  <standard_units>  (224) 
nM

>  <record_id>  (224) 
969483

>  <document_chembl_id>  (224) 
CHEMBL1275273

>  <bao_format>  (224) 
BAO_0000019

>  <data_validity_description>  (224) 
None

>  <activity_id>  (224) 
3550764

>  <standard_type>  (224) 
IC50

>  <target_chembl_id>  (224) 
CHEMBL217

>  <data_validity_comment>  (224) 
None

>  <published_value>  (224) 
6.5

>  <document_year>  (224) 
2010

>  <target_pref_name>  (224) 
Dopamine D2 receptor

>  <assay_chembl_id>  (224) 
CHEMBL1285353

>  <standard_relation>  (224) 
=

>  <assay_description>  (224) 
Antagonist activity at dopamine D2 receptor

>  <published_relation>  (224) 
=

>  <standard_value>  (224) 
316.23

>  <qudt_units>  (224) 
http://www.openphacts.org/units/Nanomolar

>  <target_tax_id>  (224) 
9606

>  <bao_label>  (224) 
assay format

>  <published_units>  (224) 
None

>  <pchembl_value>  (224) 
6.5

>  <published_type>  (224) 
pIC50

>  <activity_comment>  (224) 
None

$$$$

     RDKit          

 21 22  0  0  0  0  0  0  0  0999 V2000
    0.0000    0.0000    0.0000 C   0  0  0  0  0  0  0  0  0  0  0  0
    0.0000    0.0000    0.0000 C   0  0  0  0  0  0  0  0  0  0  0  0
    0.0000    0.0000    0.0000 N   0  0  0  0  0  0  0  0  0  0  0  0
    0.0000    0.0000    0.0000 C   0  0  0  0  0  0  0  0  0  0  0  0
    0.0000    0.0000    0.0000 C   0  0  0  0  0  0  0  0  0  0  0  0
    0.0000    0.0000    0.0000 C   0  0  0  0  0  0  0  0  0  0  0  0
    0.0000    0.0000    0.0000 C   0  0  0  0  0  0  0  0  0  0  0  0
    0.0000    0.0000    0.0000 C   0  0  0  0  0  0  0  0  0  0  0  0
    0.0000    0.0000    0.0000 N   0  0  0  0  0  0  0  0  0  0  0  0
    0.0000    0.0000    0.0000 C   0  0  0  0  0  0  0  0  0  0  0  0
    0.0000    0.0000    0.0000 O   0  0  0  0  0  0  0  0  0  0  0  0
    0.0000    0.0000    0.0000 C   0  0  0  0  0  0  0  0  0  0  0  0
    0.0000    0.0000    0.0000 C   0  0  0  0  0  0  0  0  0  0  0  0
    0.0000    0.0000    0.0000 Br  0  0  0  0  0  0  0  0  0  0  0  0
    0.0000    0.0000    0.0000 C   0  0  0  0  0  0  0  0  0  0  0  0
    0.0000    0.0000    0.0000 C   0  0  0  0  0  0  0  0  0  0  0  0
    0.0000    0.0000    0.0000 C   0  0  0  0  0  0  0  0  0  0  0  0
    0.0000    0.0000    0.0000 O   0  0  0  0  0  0  0  0  0  0  0  0
    0.0000    0.0000    0.0000 C   0  0  0  0  0  0  0  0  0  0  0  0
    0.0000    0.0000    0.0000 O   0  0  0  0  0  0  0  0  0  0  0  0
    0.0000    0.0000    0.0000 C   0  0  0  0  0  0  0  0  0  0  0  0
  1  2  1  0
  2  3  1  0
  3  4  1  0
  4  5  1  0
  5  6  1  0
  6  7  1  0
  7  8  1  0
  8  9  1  0
  9 10  1  0
 10 11  2  0
 10 12  1  0
 12 13  2  0
 13 14  1  0
 13 15  1  0
 15 16  2  0
 16 17  1  0
 17 18  1  0
 17 19  2  0
 19 20  1  0
 20 21  1  0
  7  3  1  0
 19 12  1  0
M  END
>  <pIC50>  (225) 
7.25

>  <ChEMBL_ID>  (225) 
CHEMBL1276710

>  <document_journal>  (225) 
Eur. J. Med. Chem.

>  <bao_endpoint>  (225) 
BAO_0000190

>  <potential_duplicate>  (225) 
False

>  <uo_units>  (225) 
UO_0000065

>  <canonical_smiles>  (225) 
CCN1CCC[C@H]1CNC(=O)c2c(Br)ccc(O)c2OC

>  <parent_molecule_chembl_id>  (225) 
CHEMBL1276710

>  <assay_type>  (225) 
F

>  <src_id>  (225) 
1

>  <ligand_efficiency>  (225) 
None

>  <standard_flag>  (225) 
True

>  <molecule_chembl_id>  (225) 
CHEMBL1276710

>  <target_organism>  (225) 
Homo sapiens

>  <standard_units>  (225) 
nM

>  <record_id>  (225) 
970937

>  <document_chembl_id>  (225) 
CHEMBL1275273

>  <bao_format>  (225) 
BAO_0000019

>  <data_validity_description>  (225) 
None

>  <activity_id>  (225) 
3550765

>  <standard_type>  (225) 
IC50

>  <target_chembl_id>  (225) 
CHEMBL217

>  <data_validity_comment>  (225) 
None

>  <published_value>  (225) 
7.25

>  <document_year>  (225) 
2010

>  <target_pref_name>  (225) 
Dopamine D2 receptor

>  <assay_chembl_id>  (225) 
CHEMBL1285353

>  <standard_relation>  (225) 
=

>  <assay_description>  (225) 
Antagonist activity at dopamine D2 receptor

>  <published_relation>  (225) 
=

>  <standard_value>  (225) 
56.23

>  <qudt_units>  (225) 
http://www.openphacts.org/units/Nanomolar

>  <target_tax_id>  (225) 
9606

>  <bao_label>  (225) 
assay format

>  <published_units>  (225) 
None

>  <pchembl_value>  (225) 
7.25

>  <published_type>  (225) 
pIC50

>  <activity_comment>  (225) 
None

$$$$

     RDKit          

 22 23  0  0  0  0  0  0  0  0999 V2000
    0.0000    0.0000    0.0000 C   0  0  0  0  0  0  0  0  0  0  0  0
    0.0000    0.0000    0.0000 C   0  0  0  0  0  0  0  0  0  0  0  0
    0.0000    0.0000    0.0000 N   0  0  0  0  0  0  0  0  0  0  0  0
    0.0000    0.0000    0.0000 C   0  0  0  0  0  0  0  0  0  0  0  0
    0.0000    0.0000    0.0000 C   0  0  0  0  0  0  0  0  0  0  0  0
    0.0000    0.0000    0.0000 C   0  0  0  0  0  0  0  0  0  0  0  0
    0.0000    0.0000    0.0000 C   0  0  0  0  0  0  0  0  0  0  0  0
    0.0000    0.0000    0.0000 C   0  0  0  0  0  0  0  0  0  0  0  0
    0.0000    0.0000    0.0000 N   0  0  0  0  0  0  0  0  0  0  0  0
    0.0000    0.0000    0.0000 C   0  0  0  0  0  0  0  0  0  0  0  0
    0.0000    0.0000    0.0000 O   0  0  0  0  0  0  0  0  0  0  0  0
    0.0000    0.0000    0.0000 C   0  0  0  0  0  0  0  0  0  0  0  0
    0.0000    0.0000    0.0000 C   0  0  0  0  0  0  0  0  0  0  0  0
    0.0000    0.0000    0.0000 C   0  0  0  0  0  0  0  0  0  0  0  0
    0.0000    0.0000    0.0000 C   0  0  0  0  0  0  0  0  0  0  0  0
    0.0000    0.0000    0.0000 Cl  0  0  0  0  0  0  0  0  0  0  0  0
    0.0000    0.0000    0.0000 C   0  0  0  0  0  0  0  0  0  0  0  0
    0.0000    0.0000    0.0000 C   0  0  0  0  0  0  0  0  0  0  0  0
    0.0000    0.0000    0.0000 O   0  0  0  0  0  0  0  0  0  0  0  0
    0.0000    0.0000    0.0000 C   0  0  0  0  0  0  0  0  0  0  0  0
    0.0000    0.0000    0.0000 O   0  0  0  0  0  0  0  0  0  0  0  0
    0.0000    0.0000    0.0000 C   0  0  0  0  0  0  0  0  0  0  0  0
  1  2  1  0
  2  3  1  0
  3  4  1  0
  4  5  1  0
  5  6  1  0
  6  7  1  0
  7  8  1  0
  8  9  1  0
  9 10  1  0
 10 11  2  0
 10 12  1  0
 12 13  2  0
 13 14  1  0
 13 15  1  0
 15 16  1  0
 15 17  2  0
 17 18  1  0
 18 19  1  0
 18 20  2  0
 20 21  1  0
 21 22  1  0
  7  3  1  0
 20 12  1  0
M  END
>  <pIC50>  (226) 
7.96

>  <ChEMBL_ID>  (226) 
CHEMBL1276711

>  <document_journal>  (226) 
Eur. J. Med. Chem.

>  <bao_endpoint>  (226) 
BAO_0000190

>  <potential_duplicate>  (226) 
False

>  <uo_units>  (226) 
UO_0000065

>  <canonical_smiles>  (226) 
CCN1CCC[C@H]1CNC(=O)c2c(C)c(Cl)cc(O)c2OC

>  <parent_molecule_chembl_id>  (226) 
CHEMBL1276711

>  <assay_type>  (226) 
F

>  <src_id>  (226) 
1

>  <ligand_efficiency>  (226) 
None

>  <standard_flag>  (226) 
True

>  <molecule_chembl_id>  (226) 
CHEMBL1276711

>  <target_organism>  (226) 
Homo sapiens

>  <standard_units>  (226) 
nM

>  <record_id>  (226) 
970938

>  <document_chembl_id>  (226) 
CHEMBL1275273

>  <bao_format>  (226) 
BAO_0000019

>  <data_validity_description>  (226) 
None

>  <activity_id>  (226) 
3550766

>  <standard_type>  (226) 
IC50

>  <target_chembl_id>  (226) 
CHEMBL217

>  <data_validity_comment>  (226) 
None

>  <published_value>  (226) 
7.96

>  <document_year>  (226) 
2010

>  <target_pref_name>  (226) 
Dopamine D2 receptor

>  <assay_chembl_id>  (226) 
CHEMBL1285353

>  <standard_relation>  (226) 
=

>  <assay_description>  (226) 
Antagonist activity at dopamine D2 receptor

>  <published_relation>  (226) 
=

>  <standard_value>  (226) 
10.96

>  <qudt_units>  (226) 
http://www.openphacts.org/units/Nanomolar

>  <target_tax_id>  (226) 
9606

>  <bao_label>  (226) 
assay format

>  <published_units>  (226) 
None

>  <pchembl_value>  (226) 
7.96

>  <published_type>  (226) 
pIC50

>  <activity_comment>  (226) 
None

$$$$

     RDKit          

 23 24  0  0  0  0  0  0  0  0999 V2000
    0.0000    0.0000    0.0000 C   0  0  0  0  0  0  0  0  0  0  0  0
    0.0000    0.0000    0.0000 C   0  0  0  0  0  0  0  0  0  0  0  0
    0.0000    0.0000    0.0000 N   0  0  0  0  0  0  0  0  0  0  0  0
    0.0000    0.0000    0.0000 C   0  0  0  0  0  0  0  0  0  0  0  0
    0.0000    0.0000    0.0000 C   0  0  0  0  0  0  0  0  0  0  0  0
    0.0000    0.0000    0.0000 C   0  0  0  0  0  0  0  0  0  0  0  0
    0.0000    0.0000    0.0000 C   0  0  0  0  0  0  0  0  0  0  0  0
    0.0000    0.0000    0.0000 C   0  0  0  0  0  0  0  0  0  0  0  0
    0.0000    0.0000    0.0000 N   0  0  0  0  0  0  0  0  0  0  0  0
    0.0000    0.0000    0.0000 C   0  0  0  0  0  0  0  0  0  0  0  0
    0.0000    0.0000    0.0000 O   0  0  0  0  0  0  0  0  0  0  0  0
    0.0000    0.0000    0.0000 C   0  0  0  0  0  0  0  0  0  0  0  0
    0.0000    0.0000    0.0000 C   0  0  0  0  0  0  0  0  0  0  0  0
    0.0000    0.0000    0.0000 O   0  0  0  0  0  0  0  0  0  0  0  0
    0.0000    0.0000    0.0000 C   0  0  0  0  0  0  0  0  0  0  0  0
    0.0000    0.0000    0.0000 C   0  0  0  0  0  0  0  0  0  0  0  0
    0.0000    0.0000    0.0000 O   0  0  0  0  0  0  0  0  0  0  0  0
    0.0000    0.0000    0.0000 C   0  0  0  0  0  0  0  0  0  0  0  0
    0.0000    0.0000    0.0000 C   0  0  0  0  0  0  0  0  0  0  0  0
    0.0000    0.0000    0.0000 Cl  0  0  0  0  0  0  0  0  0  0  0  0
    0.0000    0.0000    0.0000 C   0  0  0  0  0  0  0  0  0  0  0  0
    0.0000    0.0000    0.0000 O   0  0  0  0  0  0  0  0  0  0  0  0
    0.0000    0.0000    0.0000 C   0  0  0  0  0  0  0  0  0  0  0  0
  1  2  1  0
  2  3  1  0
  3  4  1  0
  4  5  1  0
  5  6  1  0
  6  7  1  0
  7  8  1  0
  8  9  1  0
  9 10  1  0
 10 11  2  0
 10 12  1  0
 12 13  2  0
 13 14  1  0
 14 15  1  0
 13 16  1  0
 16 17  1  0
 16 18  2  0
 18 19  1  0
 19 20  1  0
 19 21  2  0
 21 22  1  0
 22 23  1  0
  7  3  1  0
 21 12  1  0
M  END
>  <pIC50>  (227) 
8.77

>  <ChEMBL_ID>  (227) 
CHEMBL1276712

>  <document_journal>  (227) 
Eur. J. Med. Chem.

>  <bao_endpoint>  (227) 
BAO_0000190

>  <potential_duplicate>  (227) 
False

>  <uo_units>  (227) 
UO_0000065

>  <canonical_smiles>  (227) 
CCN1CCC[C@H]1CNC(=O)c2c(OC)c(O)cc(Cl)c2OC

>  <parent_molecule_chembl_id>  (227) 
CHEMBL1276712

>  <assay_type>  (227) 
F

>  <src_id>  (227) 
1

>  <ligand_efficiency>  (227) 
None

>  <standard_flag>  (227) 
True

>  <molecule_chembl_id>  (227) 
CHEMBL1276712

>  <target_organism>  (227) 
Homo sapiens

>  <standard_units>  (227) 
nM

>  <record_id>  (227) 
970939

>  <document_chembl_id>  (227) 
CHEMBL1275273

>  <bao_format>  (227) 
BAO_0000019

>  <data_validity_description>  (227) 
None

>  <activity_id>  (227) 
3550767

>  <standard_type>  (227) 
IC50

>  <target_chembl_id>  (227) 
CHEMBL217

>  <data_validity_comment>  (227) 
None

>  <published_value>  (227) 
8.77

>  <document_year>  (227) 
2010

>  <target_pref_name>  (227) 
Dopamine D2 receptor

>  <assay_chembl_id>  (227) 
CHEMBL1285353

>  <standard_relation>  (227) 
=

>  <assay_description>  (227) 
Antagonist activity at dopamine D2 receptor

>  <published_relation>  (227) 
=

>  <standard_value>  (227) 
1.698

>  <qudt_units>  (227) 
http://www.openphacts.org/units/Nanomolar

>  <target_tax_id>  (227) 
9606

>  <bao_label>  (227) 
assay format

>  <published_units>  (227) 
None

>  <pchembl_value>  (227) 
8.77

>  <published_type>  (227) 
pIC50

>  <activity_comment>  (227) 
None

$$$$

     RDKit          

 22 23  0  0  0  0  0  0  0  0999 V2000
    0.0000    0.0000    0.0000 C   0  0  0  0  0  0  0  0  0  0  0  0
    0.0000    0.0000    0.0000 C   0  0  0  0  0  0  0  0  0  0  0  0
    0.0000    0.0000    0.0000 N   0  0  0  0  0  0  0  0  0  0  0  0
    0.0000    0.0000    0.0000 C   0  0  0  0  0  0  0  0  0  0  0  0
    0.0000    0.0000    0.0000 C   0  0  0  0  0  0  0  0  0  0  0  0
    0.0000    0.0000    0.0000 C   0  0  0  0  0  0  0  0  0  0  0  0
    0.0000    0.0000    0.0000 C   0  0  0  0  0  0  0  0  0  0  0  0
    0.0000    0.0000    0.0000 C   0  0  0  0  0  0  0  0  0  0  0  0
    0.0000    0.0000    0.0000 N   0  0  0  0  0  0  0  0  0  0  0  0
    0.0000    0.0000    0.0000 C   0  0  0  0  0  0  0  0  0  0  0  0
    0.0000    0.0000    0.0000 O   0  0  0  0  0  0  0  0  0  0  0  0
    0.0000    0.0000    0.0000 C   0  0  0  0  0  0  0  0  0  0  0  0
    0.0000    0.0000    0.0000 C   0  0  0  0  0  0  0  0  0  0  0  0
    0.0000    0.0000    0.0000 F   0  0  0  0  0  0  0  0  0  0  0  0
    0.0000    0.0000    0.0000 C   0  0  0  0  0  0  0  0  0  0  0  0
    0.0000    0.0000    0.0000 Br  0  0  0  0  0  0  0  0  0  0  0  0
    0.0000    0.0000    0.0000 C   0  0  0  0  0  0  0  0  0  0  0  0
    0.0000    0.0000    0.0000 C   0  0  0  0  0  0  0  0  0  0  0  0
    0.0000    0.0000    0.0000 O   0  0  0  0  0  0  0  0  0  0  0  0
    0.0000    0.0000    0.0000 C   0  0  0  0  0  0  0  0  0  0  0  0
    0.0000    0.0000    0.0000 O   0  0  0  0  0  0  0  0  0  0  0  0
    0.0000    0.0000    0.0000 C   0  0  0  0  0  0  0  0  0  0  0  0
  1  2  1  0
  2  3  1  0
  3  4  1  0
  4  5  1  0
  5  6  1  0
  6  7  1  0
  7  8  1  0
  8  9  1  0
  9 10  1  0
 10 11  2  0
 10 12  1  0
 12 13  2  0
 13 14  1  0
 13 15  1  0
 15 16  1  0
 15 17  2  0
 17 18  1  0
 18 19  1  0
 18 20  2  0
 20 21  1  0
 21 22  1  0
  7  3  1  0
 20 12  1  0
M  END
>  <pIC50>  (228) 
8.15

>  <ChEMBL_ID>  (228) 
CHEMBL1276740

>  <document_journal>  (228) 
Eur. J. Med. Chem.

>  <bao_endpoint>  (228) 
BAO_0000190

>  <potential_duplicate>  (228) 
False

>  <uo_units>  (228) 
UO_0000065

>  <canonical_smiles>  (228) 
CCN1CCC[C@H]1CNC(=O)c2c(F)c(Br)cc(O)c2OC

>  <parent_molecule_chembl_id>  (228) 
CHEMBL1276740

>  <assay_type>  (228) 
F

>  <src_id>  (228) 
1

>  <ligand_efficiency>  (228) 
None

>  <standard_flag>  (228) 
True

>  <molecule_chembl_id>  (228) 
CHEMBL1276740

>  <target_organism>  (228) 
Homo sapiens

>  <standard_units>  (228) 
nM

>  <record_id>  (228) 
971015

>  <document_chembl_id>  (228) 
CHEMBL1275273

>  <bao_format>  (228) 
BAO_0000019

>  <data_validity_description>  (228) 
None

>  <activity_id>  (228) 
3550768

>  <standard_type>  (228) 
IC50

>  <target_chembl_id>  (228) 
CHEMBL217

>  <data_validity_comment>  (228) 
None

>  <published_value>  (228) 
8.15

>  <document_year>  (228) 
2010

>  <target_pref_name>  (228) 
Dopamine D2 receptor

>  <assay_chembl_id>  (228) 
CHEMBL1285353

>  <standard_relation>  (228) 
=

>  <assay_description>  (228) 
Antagonist activity at dopamine D2 receptor

>  <published_relation>  (228) 
=

>  <standard_value>  (228) 
7.079

>  <qudt_units>  (228) 
http://www.openphacts.org/units/Nanomolar

>  <target_tax_id>  (228) 
9606

>  <bao_label>  (228) 
assay format

>  <published_units>  (228) 
None

>  <pchembl_value>  (228) 
8.15

>  <published_type>  (228) 
pIC50

>  <activity_comment>  (228) 
None

$$$$

     RDKit          

 22 23  0  0  0  0  0  0  0  0999 V2000
    0.0000    0.0000    0.0000 C   0  0  0  0  0  0  0  0  0  0  0  0
    0.0000    0.0000    0.0000 C   0  0  0  0  0  0  0  0  0  0  0  0
    0.0000    0.0000    0.0000 N   0  0  0  0  0  0  0  0  0  0  0  0
    0.0000    0.0000    0.0000 C   0  0  0  0  0  0  0  0  0  0  0  0
    0.0000    0.0000    0.0000 C   0  0  0  0  0  0  0  0  0  0  0  0
    0.0000    0.0000    0.0000 C   0  0  0  0  0  0  0  0  0  0  0  0
    0.0000    0.0000    0.0000 C   0  0  0  0  0  0  0  0  0  0  0  0
    0.0000    0.0000    0.0000 C   0  0  0  0  0  0  0  0  0  0  0  0
    0.0000    0.0000    0.0000 N   0  0  0  0  0  0  0  0  0  0  0  0
    0.0000    0.0000    0.0000 C   0  0  0  0  0  0  0  0  0  0  0  0
    0.0000    0.0000    0.0000 O   0  0  0  0  0  0  0  0  0  0  0  0
    0.0000    0.0000    0.0000 C   0  0  0  0  0  0  0  0  0  0  0  0
    0.0000    0.0000    0.0000 C   0  0  0  0  0  0  0  0  0  0  0  0
    0.0000    0.0000    0.0000 C   0  0  0  0  0  0  0  0  0  0  0  0
    0.0000    0.0000    0.0000 C   0  0  0  0  0  0  0  0  0  0  0  0
    0.0000    0.0000    0.0000 Br  0  0  0  0  0  0  0  0  0  0  0  0
    0.0000    0.0000    0.0000 C   0  0  0  0  0  0  0  0  0  0  0  0
    0.0000    0.0000    0.0000 C   0  0  0  0  0  0  0  0  0  0  0  0
    0.0000    0.0000    0.0000 O   0  0  0  0  0  0  0  0  0  0  0  0
    0.0000    0.0000    0.0000 C   0  0  0  0  0  0  0  0  0  0  0  0
    0.0000    0.0000    0.0000 O   0  0  0  0  0  0  0  0  0  0  0  0
    0.0000    0.0000    0.0000 C   0  0  0  0  0  0  0  0  0  0  0  0
  1  2  1  0
  2  3  1  0
  3  4  1  0
  4  5  1  0
  5  6  1  0
  6  7  1  0
  7  8  1  0
  8  9  1  0
  9 10  1  0
 10 11  2  0
 10 12  1  0
 12 13  2  0
 13 14  1  0
 13 15  1  0
 15 16  1  0
 15 17  2  0
 17 18  1  0
 18 19  1  0
 18 20  2  0
 20 21  1  0
 21 22  1  0
  7  3  1  0
 20 12  1  0
M  END
>  <pIC50>  (229) 
7.96

>  <ChEMBL_ID>  (229) 
CHEMBL1276741

>  <document_journal>  (229) 
Eur. J. Med. Chem.

>  <bao_endpoint>  (229) 
BAO_0000190

>  <potential_duplicate>  (229) 
False

>  <uo_units>  (229) 
UO_0000065

>  <canonical_smiles>  (229) 
CCN1CCC[C@H]1CNC(=O)c2c(C)c(Br)cc(O)c2OC

>  <parent_molecule_chembl_id>  (229) 
CHEMBL1276741

>  <assay_type>  (229) 
F

>  <src_id>  (229) 
1

>  <ligand_efficiency>  (229) 
None

>  <standard_flag>  (229) 
True

>  <molecule_chembl_id>  (229) 
CHEMBL1276741

>  <target_organism>  (229) 
Homo sapiens

>  <standard_units>  (229) 
nM

>  <record_id>  (229) 
971016

>  <document_chembl_id>  (229) 
CHEMBL1275273

>  <bao_format>  (229) 
BAO_0000019

>  <data_validity_description>  (229) 
None

>  <activity_id>  (229) 
3550769

>  <standard_type>  (229) 
IC50

>  <target_chembl_id>  (229) 
CHEMBL217

>  <data_validity_comment>  (229) 
None

>  <published_value>  (229) 
7.96

>  <document_year>  (229) 
2010

>  <target_pref_name>  (229) 
Dopamine D2 receptor

>  <assay_chembl_id>  (229) 
CHEMBL1285353

>  <standard_relation>  (229) 
=

>  <assay_description>  (229) 
Antagonist activity at dopamine D2 receptor

>  <published_relation>  (229) 
=

>  <standard_value>  (229) 
10.96

>  <qudt_units>  (229) 
http://www.openphacts.org/units/Nanomolar

>  <target_tax_id>  (229) 
9606

>  <bao_label>  (229) 
assay format

>  <published_units>  (229) 
None

>  <pchembl_value>  (229) 
7.96

>  <published_type>  (229) 
pIC50

>  <activity_comment>  (229) 
None

$$$$

     RDKit          

 21 22  0  0  0  0  0  0  0  0999 V2000
    0.0000    0.0000    0.0000 C   0  0  0  0  0  0  0  0  0  0  0  0
    0.0000    0.0000    0.0000 C   0  0  0  0  0  0  0  0  0  0  0  0
    0.0000    0.0000    0.0000 N   0  0  0  0  0  0  0  0  0  0  0  0
    0.0000    0.0000    0.0000 C   0  0  0  0  0  0  0  0  0  0  0  0
    0.0000    0.0000    0.0000 C   0  0  0  0  0  0  0  0  0  0  0  0
    0.0000    0.0000    0.0000 C   0  0  0  0  0  0  0  0  0  0  0  0
    0.0000    0.0000    0.0000 C   0  0  0  0  0  0  0  0  0  0  0  0
    0.0000    0.0000    0.0000 C   0  0  0  0  0  0  0  0  0  0  0  0
    0.0000    0.0000    0.0000 N   0  0  0  0  0  0  0  0  0  0  0  0
    0.0000    0.0000    0.0000 C   0  0  0  0  0  0  0  0  0  0  0  0
    0.0000    0.0000    0.0000 O   0  0  0  0  0  0  0  0  0  0  0  0
    0.0000    0.0000    0.0000 C   0  0  0  0  0  0  0  0  0  0  0  0
    0.0000    0.0000    0.0000 C   0  0  0  0  0  0  0  0  0  0  0  0
    0.0000    0.0000    0.0000 C   0  0  0  0  0  0  0  0  0  0  0  0
    0.0000    0.0000    0.0000 C   0  0  0  0  0  0  0  0  0  0  0  0
    0.0000    0.0000    0.0000 C   0  0  0  0  0  0  0  0  0  0  0  0
    0.0000    0.0000    0.0000 C   0  0  0  0  0  0  0  0  0  0  0  0
    0.0000    0.0000    0.0000 O   0  0  0  0  0  0  0  0  0  0  0  0
    0.0000    0.0000    0.0000 C   0  0  0  0  0  0  0  0  0  0  0  0
    0.0000    0.0000    0.0000 O   0  0  0  0  0  0  0  0  0  0  0  0
    0.0000    0.0000    0.0000 C   0  0  0  0  0  0  0  0  0  0  0  0
  1  2  1  0
  2  3  1  0
  3  4  1  0
  4  5  1  0
  5  6  1  0
  6  7  1  0
  7  8  1  0
  8  9  1  0
  9 10  1  0
 10 11  2  0
 10 12  1  0
 12 13  2  0
 13 14  1  0
 14 15  1  0
 14 16  2  0
 16 17  1  0
 17 18  1  0
 17 19  2  0
 19 20  1  0
 20 21  1  0
  7  3  1  0
 19 12  1  0
M  END
>  <pIC50>  (230) 
7.72

>  <ChEMBL_ID>  (230) 
CHEMBL1276742

>  <document_journal>  (230) 
Eur. J. Med. Chem.

>  <bao_endpoint>  (230) 
BAO_0000190

>  <potential_duplicate>  (230) 
False

>  <uo_units>  (230) 
UO_0000065

>  <canonical_smiles>  (230) 
CCN1CCC[C@H]1CNC(=O)c2cc(C)cc(O)c2OC

>  <parent_molecule_chembl_id>  (230) 
CHEMBL1276742

>  <assay_type>  (230) 
F

>  <src_id>  (230) 
1

>  <ligand_efficiency>  (230) 
None

>  <standard_flag>  (230) 
True

>  <molecule_chembl_id>  (230) 
CHEMBL1276742

>  <target_organism>  (230) 
Homo sapiens

>  <standard_units>  (230) 
nM

>  <record_id>  (230) 
971017

>  <document_chembl_id>  (230) 
CHEMBL1275273

>  <bao_format>  (230) 
BAO_0000019

>  <data_validity_description>  (230) 
None

>  <activity_id>  (230) 
3550770

>  <standard_type>  (230) 
IC50

>  <target_chembl_id>  (230) 
CHEMBL217

>  <data_validity_comment>  (230) 
None

>  <published_value>  (230) 
7.72

>  <document_year>  (230) 
2010

>  <target_pref_name>  (230) 
Dopamine D2 receptor

>  <assay_chembl_id>  (230) 
CHEMBL1285353

>  <standard_relation>  (230) 
=

>  <assay_description>  (230) 
Antagonist activity at dopamine D2 receptor

>  <published_relation>  (230) 
=

>  <standard_value>  (230) 
19.05

>  <qudt_units>  (230) 
http://www.openphacts.org/units/Nanomolar

>  <target_tax_id>  (230) 
9606

>  <bao_label>  (230) 
assay format

>  <published_units>  (230) 
None

>  <pchembl_value>  (230) 
7.72

>  <published_type>  (230) 
pIC50

>  <activity_comment>  (230) 
None

$$$$

     RDKit          

 24 25  0  0  0  0  0  0  0  0999 V2000
    0.0000    0.0000    0.0000 C   0  0  0  0  0  0  0  0  0  0  0  0
    0.0000    0.0000    0.0000 C   0  0  0  0  0  0  0  0  0  0  0  0
    0.0000    0.0000    0.0000 C   0  0  0  0  0  0  0  0  0  0  0  0
    0.0000    0.0000    0.0000 C   0  0  0  0  0  0  0  0  0  0  0  0
    0.0000    0.0000    0.0000 C   0  0  0  0  0  0  0  0  0  0  0  0
    0.0000    0.0000    0.0000 C   0  0  0  0  0  0  0  0  0  0  0  0
    0.0000    0.0000    0.0000 C   0  0  0  0  0  0  0  0  0  0  0  0
    0.0000    0.0000    0.0000 C   0  0  0  0  0  0  0  0  0  0  0  0
    0.0000    0.0000    0.0000 O   0  0  0  0  0  0  0  0  0  0  0  0
    0.0000    0.0000    0.0000 C   0  0  0  0  0  0  0  0  0  0  0  0
    0.0000    0.0000    0.0000 O   0  0  0  0  0  0  0  0  0  0  0  0
    0.0000    0.0000    0.0000 C   0  0  0  0  0  0  0  0  0  0  0  0
    0.0000    0.0000    0.0000 C   0  0  0  0  0  0  0  0  0  0  0  0
    0.0000    0.0000    0.0000 C   0  0  0  0  0  0  0  0  0  0  0  0
    0.0000    0.0000    0.0000 O   0  0  0  0  0  0  0  0  0  0  0  0
    0.0000    0.0000    0.0000 N   0  0  0  0  0  0  0  0  0  0  0  0
    0.0000    0.0000    0.0000 C   0  0  0  0  0  0  0  0  0  0  0  0
    0.0000    0.0000    0.0000 C   0  0  0  0  0  0  0  0  0  0  0  0
    0.0000    0.0000    0.0000 C   0  0  0  0  0  0  0  0  0  0  0  0
    0.0000    0.0000    0.0000 C   0  0  0  0  0  0  0  0  0  0  0  0
    0.0000    0.0000    0.0000 C   0  0  0  0  0  0  0  0  0  0  0  0
    0.0000    0.0000    0.0000 N   0  0  0  0  0  0  0  0  0  0  0  0
    0.0000    0.0000    0.0000 C   0  0  0  0  0  0  0  0  0  0  0  0
    0.0000    0.0000    0.0000 C   0  0  0  0  0  0  0  0  0  0  0  0
  1  2  1  0
  2  3  1  0
  3  4  1  0
  4  5  2  0
  5  6  1  0
  5  7  1  0
  7  8  2  0
  8  9  1  0
  8 10  1  0
 10 11  1  0
 11 12  1  0
 10 13  2  0
 13 14  1  0
 14 15  2  0
 14 16  1  0
 16 17  1  0
 17 18  1  0
 18 19  1  0
 19 20  1  0
 20 21  1  0
 21 22  1  0
 22 23  1  0
 23 24  1  0
 13  4  1  0
 22 18  1  0
M  END
>  <pIC50>  (231) 
6.85

>  <ChEMBL_ID>  (231) 
CHEMBL1276766

>  <document_journal>  (231) 
Eur. J. Med. Chem.

>  <bao_endpoint>  (231) 
BAO_0000190

>  <potential_duplicate>  (231) 
False

>  <uo_units>  (231) 
UO_0000065

>  <canonical_smiles>  (231) 
CCCc1c(C)cc(O)c(OC)c1C(=O)NC[C@@H]2CCCN2CC

>  <parent_molecule_chembl_id>  (231) 
CHEMBL1276766

>  <assay_type>  (231) 
F

>  <src_id>  (231) 
1

>  <ligand_efficiency>  (231) 
None

>  <standard_flag>  (231) 
True

>  <molecule_chembl_id>  (231) 
CHEMBL1276766

>  <target_organism>  (231) 
Homo sapiens

>  <standard_units>  (231) 
nM

>  <record_id>  (231) 
971096

>  <document_chembl_id>  (231) 
CHEMBL1275273

>  <bao_format>  (231) 
BAO_0000019

>  <data_validity_description>  (231) 
None

>  <activity_id>  (231) 
3550771

>  <standard_type>  (231) 
IC50

>  <target_chembl_id>  (231) 
CHEMBL217

>  <data_validity_comment>  (231) 
None

>  <published_value>  (231) 
6.85

>  <document_year>  (231) 
2010

>  <target_pref_name>  (231) 
Dopamine D2 receptor

>  <assay_chembl_id>  (231) 
CHEMBL1285353

>  <standard_relation>  (231) 
=

>  <assay_description>  (231) 
Antagonist activity at dopamine D2 receptor

>  <published_relation>  (231) 
=

>  <standard_value>  (231) 
141.25

>  <qudt_units>  (231) 
http://www.openphacts.org/units/Nanomolar

>  <target_tax_id>  (231) 
9606

>  <bao_label>  (231) 
assay format

>  <published_units>  (231) 
None

>  <pchembl_value>  (231) 
6.85

>  <published_type>  (231) 
pIC50

>  <activity_comment>  (231) 
None

$$$$

     RDKit          

 23 24  0  0  0  0  0  0  0  0999 V2000
    0.0000    0.0000    0.0000 C   0  0  0  0  0  0  0  0  0  0  0  0
    0.0000    0.0000    0.0000 C   0  0  0  0  0  0  0  0  0  0  0  0
    0.0000    0.0000    0.0000 N   0  0  0  0  0  0  0  0  0  0  0  0
    0.0000    0.0000    0.0000 C   0  0  0  0  0  0  0  0  0  0  0  0
    0.0000    0.0000    0.0000 C   0  0  0  0  0  0  0  0  0  0  0  0
    0.0000    0.0000    0.0000 C   0  0  0  0  0  0  0  0  0  0  0  0
    0.0000    0.0000    0.0000 C   0  0  0  0  0  0  0  0  0  0  0  0
    0.0000    0.0000    0.0000 C   0  0  0  0  0  0  0  0  0  0  0  0
    0.0000    0.0000    0.0000 N   0  0  0  0  0  0  0  0  0  0  0  0
    0.0000    0.0000    0.0000 C   0  0  0  0  0  0  0  0  0  0  0  0
    0.0000    0.0000    0.0000 O   0  0  0  0  0  0  0  0  0  0  0  0
    0.0000    0.0000    0.0000 C   0  0  0  0  0  0  0  0  0  0  0  0
    0.0000    0.0000    0.0000 C   0  0  0  0  0  0  0  0  0  0  0  0
    0.0000    0.0000    0.0000 C   0  0  0  0  0  0  0  0  0  0  0  0
    0.0000    0.0000    0.0000 C   0  0  0  0  0  0  0  0  0  0  0  0
    0.0000    0.0000    0.0000 C   0  0  0  0  0  0  0  0  0  0  0  0
    0.0000    0.0000    0.0000 O   0  0  0  0  0  0  0  0  0  0  0  0
    0.0000    0.0000    0.0000 C   0  0  0  0  0  0  0  0  0  0  0  0
    0.0000    0.0000    0.0000 O   0  0  0  0  0  0  0  0  0  0  0  0
    0.0000    0.0000    0.0000 C   0  0  0  0  0  0  0  0  0  0  0  0
    0.0000    0.0000    0.0000 N   0  0  0  0  0  0  0  0  0  0  0  0
    0.0000    0.0000    0.0000 O   0  0  0  0  0  0  0  0  0  0  0  0
    0.0000    0.0000    0.0000 O   0  0  0  0  0  0  0  0  0  0  0  0
  1  2  1  0
  2  3  1  0
  3  4  1  0
  4  5  1  0
  5  6  1  0
  6  7  1  0
  7  8  1  0
  8  9  1  0
  9 10  1  0
 10 11  2  0
 10 12  1  0
 12 13  2  0
 13 14  1  0
 14 15  2  0
 15 16  1  0
 16 17  1  0
 16 18  2  0
 18 19  1  0
 19 20  1  0
 14 21  1  0
 21 22  2  0
 21 23  1  0
  7  3  1  0
 18 12  1  0
M  CHG  2  21   1  23  -1
M  END
>  <pIC50>  (232) 
5.52

>  <ChEMBL_ID>  (232) 
CHEMBL1276767

>  <document_journal>  (232) 
Eur. J. Med. Chem.

>  <bao_endpoint>  (232) 
BAO_0000190

>  <potential_duplicate>  (232) 
False

>  <uo_units>  (232) 
UO_0000065

>  <canonical_smiles>  (232) 
CCN1CCC[C@H]1CNC(=O)c2cc(cc(O)c2OC)[N+](=O)[O-]

>  <parent_molecule_chembl_id>  (232) 
CHEMBL1276767

>  <assay_type>  (232) 
F

>  <src_id>  (232) 
1

>  <ligand_efficiency>  (232) 
None

>  <standard_flag>  (232) 
True

>  <molecule_chembl_id>  (232) 
CHEMBL1276767

>  <target_organism>  (232) 
Homo sapiens

>  <standard_units>  (232) 
nM

>  <record_id>  (232) 
971097

>  <document_chembl_id>  (232) 
CHEMBL1275273

>  <bao_format>  (232) 
BAO_0000019

>  <data_validity_description>  (232) 
None

>  <activity_id>  (232) 
3550772

>  <standard_type>  (232) 
IC50

>  <target_chembl_id>  (232) 
CHEMBL217

>  <data_validity_comment>  (232) 
None

>  <published_value>  (232) 
5.52

>  <document_year>  (232) 
2010

>  <target_pref_name>  (232) 
Dopamine D2 receptor

>  <assay_chembl_id>  (232) 
CHEMBL1285353

>  <standard_relation>  (232) 
=

>  <assay_description>  (232) 
Antagonist activity at dopamine D2 receptor

>  <published_relation>  (232) 
=

>  <standard_value>  (232) 
3019.95

>  <qudt_units>  (232) 
http://www.openphacts.org/units/Nanomolar

>  <target_tax_id>  (232) 
9606

>  <bao_label>  (232) 
assay format

>  <published_units>  (232) 
None

>  <pchembl_value>  (232) 
5.52

>  <published_type>  (232) 
pIC50

>  <activity_comment>  (232) 
None

$$$$

     RDKit          

 32 36  0  0  0  0  0  0  0  0999 V2000
    0.0000    0.0000    0.0000 C   0  0  0  0  0  0  0  0  0  0  0  0
    0.0000    0.0000    0.0000 C   0  0  0  0  0  0  0  0  0  0  0  0
    0.0000    0.0000    0.0000 C   0  0  0  0  0  0  0  0  0  0  0  0
    0.0000    0.0000    0.0000 C   0  0  0  0  0  0  0  0  0  0  0  0
    0.0000    0.0000    0.0000 O   0  0  0  0  0  0  0  0  0  0  0  0
    0.0000    0.0000    0.0000 C   0  0  0  0  0  0  0  0  0  0  0  0
    0.0000    0.0000    0.0000 C   0  0  0  0  0  0  0  0  0  0  0  0
    0.0000    0.0000    0.0000 C   0  0  0  0  0  0  0  0  0  0  0  0
    0.0000    0.0000    0.0000 C   0  0  0  0  0  0  0  0  0  0  0  0
    0.0000    0.0000    0.0000 C   0  0  0  0  0  0  0  0  0  0  0  0
    0.0000    0.0000    0.0000 C   0  0  0  0  0  0  0  0  0  0  0  0
    0.0000    0.0000    0.0000 N   0  0  0  0  0  0  0  0  0  0  0  0
    0.0000    0.0000    0.0000 S   0  0  0  0  0  0  0  0  0  0  0  0
    0.0000    0.0000    0.0000 O   0  0  0  0  0  0  0  0  0  0  0  0
    0.0000    0.0000    0.0000 O   0  0  0  0  0  0  0  0  0  0  0  0
    0.0000    0.0000    0.0000 C   0  0  0  0  0  0  0  0  0  0  0  0
    0.0000    0.0000    0.0000 C   0  0  0  0  0  0  0  0  0  0  0  0
    0.0000    0.0000    0.0000 C   0  0  0  0  0  0  0  0  0  0  0  0
    0.0000    0.0000    0.0000 C   0  0  0  0  0  0  0  0  0  0  0  0
    0.0000    0.0000    0.0000 C   0  0  0  0  0  0  0  0  0  0  0  0
    0.0000    0.0000    0.0000 C   0  0  0  0  0  0  0  0  0  0  0  0
    0.0000    0.0000    0.0000 C   0  0  0  0  0  0  0  0  0  0  0  0
    0.0000    0.0000    0.0000 C   0  0  0  0  0  0  0  0  0  0  0  0
    0.0000    0.0000    0.0000 C   0  0  0  0  0  0  0  0  0  0  0  0
    0.0000    0.0000    0.0000 C   0  0  0  0  0  0  0  0  0  0  0  0
    0.0000    0.0000    0.0000 N   0  0  0  0  0  0  0  0  0  0  0  0
    0.0000    0.0000    0.0000 C   0  0  0  0  0  0  0  0  0  0  0  0
    0.0000    0.0000    0.0000 C   0  0  0  0  0  0  0  0  0  0  0  0
    0.0000    0.0000    0.0000 N   0  0  0  0  0  0  0  0  0  0  0  0
    0.0000    0.0000    0.0000 C   0  0  0  0  0  0  0  0  0  0  0  0
    0.0000    0.0000    0.0000 C   0  0  0  0  0  0  0  0  0  0  0  0
    0.0000    0.0000    0.0000 C   0  0  0  0  0  0  0  0  0  0  0  0
  1  2  1  0
  2  3  1  0
  3  4  1  0
  4  5  2  0
  4  6  1  0
  6  7  2  0
  7  8  1  0
  8  9  2  0
  9 10  1  0
 10 11  2  0
 11 12  1  0
 12 13  1  0
 13 14  2  0
 13 15  2  0
 13 16  1  0
 16 17  2  0
 17 18  1  0
 18 19  2  0
 19 20  1  0
 20 21  2  0
 21 22  1  0
 22 23  2  0
 23 24  1  0
 24 25  2  0
  9 26  1  0
 26 27  1  0
 27 28  1  0
 28 29  1  0
 29 30  1  0
 29 31  1  0
 31 32  1  0
 12  2  1  0
 11  6  1  0
 25 16  1  0
 24 19  1  0
 32 26  1  0
M  END
>  <pIC50>  (233) 
6.87

>  <ChEMBL_ID>  (233) 
CHEMBL1642118

>  <document_journal>  (233) 
Bioorg. Med. Chem. Lett.

>  <bao_endpoint>  (233) 
BAO_0000190

>  <potential_duplicate>  (233) 
False

>  <uo_units>  (233) 
UO_0000065

>  <canonical_smiles>  (233) 
CC1CC(=O)c2ccc(cc2N1S(=O)(=O)c3ccc4ccccc4c3)N5CCN(C)CC5

>  <parent_molecule_chembl_id>  (233) 
CHEMBL1642118

>  <assay_type>  (233) 
B

>  <src_id>  (233) 
1

>  <ligand_efficiency>  (233) 
{u'le': u'0.29', u'bei': u'15.27', u'sei': u'9.91', u'lle': u'3.27'}

>  <standard_flag>  (233) 
True

>  <molecule_chembl_id>  (233) 
CHEMBL1642118

>  <target_organism>  (233) 
Homo sapiens

>  <standard_units>  (233) 
nM

>  <record_id>  (233) 
1317373

>  <document_chembl_id>  (233) 
CHEMBL1641464

>  <bao_format>  (233) 
BAO_0000219

>  <data_validity_description>  (233) 
None

>  <activity_id>  (233) 
5121965

>  <standard_type>  (233) 
IC50

>  <target_chembl_id>  (233) 
CHEMBL217

>  <data_validity_comment>  (233) 
None

>  <published_value>  (233) 
136

>  <document_year>  (233) 
2011

>  <target_pref_name>  (233) 
Dopamine D2 receptor

>  <assay_chembl_id>  (233) 
CHEMBL1647768

>  <standard_relation>  (233) 
=

>  <assay_description>  (233) 
Displacement of [3H]spiperone from human dopamine D2 receptor expressed in cells

>  <published_relation>  (233) 
=

>  <standard_value>  (233) 
136

>  <qudt_units>  (233) 
http://www.openphacts.org/units/Nanomolar

>  <target_tax_id>  (233) 
9606

>  <bao_label>  (233) 
cell-based format

>  <published_units>  (233) 
nM

>  <pchembl_value>  (233) 
6.87

>  <published_type>  (233) 
IC50

>  <activity_comment>  (233) 
None

$$$$

     RDKit          

 33 37  0  0  0  0  0  0  0  0999 V2000
    0.0000    0.0000    0.0000 C   0  0  0  0  0  0  0  0  0  0  0  0
    0.0000    0.0000    0.0000 C   0  0  0  0  0  0  0  0  0  0  0  0
    0.0000    0.0000    0.0000 C   0  0  0  0  0  0  0  0  0  0  0  0
    0.0000    0.0000    0.0000 C   0  0  0  0  0  0  0  0  0  0  0  0
    0.0000    0.0000    0.0000 O   0  0  0  0  0  0  0  0  0  0  0  0
    0.0000    0.0000    0.0000 C   0  0  0  0  0  0  0  0  0  0  0  0
    0.0000    0.0000    0.0000 C   0  0  0  0  0  0  0  0  0  0  0  0
    0.0000    0.0000    0.0000 C   0  0  0  0  0  0  0  0  0  0  0  0
    0.0000    0.0000    0.0000 C   0  0  0  0  0  0  0  0  0  0  0  0
    0.0000    0.0000    0.0000 C   0  0  0  0  0  0  0  0  0  0  0  0
    0.0000    0.0000    0.0000 C   0  0  0  0  0  0  0  0  0  0  0  0
    0.0000    0.0000    0.0000 C   0  0  0  0  0  0  0  0  0  0  0  0
    0.0000    0.0000    0.0000 N   0  0  0  0  0  0  0  0  0  0  0  0
    0.0000    0.0000    0.0000 S   0  0  0  0  0  0  0  0  0  0  0  0
    0.0000    0.0000    0.0000 O   0  0  0  0  0  0  0  0  0  0  0  0
    0.0000    0.0000    0.0000 O   0  0  0  0  0  0  0  0  0  0  0  0
    0.0000    0.0000    0.0000 C   0  0  0  0  0  0  0  0  0  0  0  0
    0.0000    0.0000    0.0000 C   0  0  0  0  0  0  0  0  0  0  0  0
    0.0000    0.0000    0.0000 C   0  0  0  0  0  0  0  0  0  0  0  0
    0.0000    0.0000    0.0000 C   0  0  0  0  0  0  0  0  0  0  0  0
    0.0000    0.0000    0.0000 C   0  0  0  0  0  0  0  0  0  0  0  0
    0.0000    0.0000    0.0000 C   0  0  0  0  0  0  0  0  0  0  0  0
    0.0000    0.0000    0.0000 C   0  0  0  0  0  0  0  0  0  0  0  0
    0.0000    0.0000    0.0000 C   0  0  0  0  0  0  0  0  0  0  0  0
    0.0000    0.0000    0.0000 C   0  0  0  0  0  0  0  0  0  0  0  0
    0.0000    0.0000    0.0000 C   0  0  0  0  0  0  0  0  0  0  0  0
    0.0000    0.0000    0.0000 N   0  0  0  0  0  0  0  0  0  0  0  0
    0.0000    0.0000    0.0000 C   0  0  0  0  0  0  0  0  0  0  0  0
    0.0000    0.0000    0.0000 C   0  0  0  0  0  0  0  0  0  0  0  0
    0.0000    0.0000    0.0000 N   0  0  0  0  0  0  0  0  0  0  0  0
    0.0000    0.0000    0.0000 C   0  0  0  0  0  0  0  0  0  0  0  0
    0.0000    0.0000    0.0000 C   0  0  0  0  0  0  0  0  0  0  0  0
    0.0000    0.0000    0.0000 C   0  0  0  0  0  0  0  0  0  0  0  0
  1  2  1  0
  2  3  1  0
  3  4  1  0
  4  5  2  0
  4  6  1  0
  6  7  2  0
  7  8  1  0
  8  9  2  0
  9 10  1  0
  9 11  1  0
 11 12  2  0
 12 13  1  0
 13 14  1  0
 14 15  2  0
 14 16  2  0
 14 17  1  0
 17 18  2  0
 18 19  1  0
 19 20  2  0
 20 21  1  0
 21 22  2  0
 22 23  1  0
 23 24  2  0
 24 25  1  0
 25 26  2  0
  7 27  1  0
 27 28  1  0
 28 29  1  0
 29 30  1  0
 30 31  1  0
 30 32  1  0
 32 33  1  0
 13  2  1  0
 12  6  1  0
 26 17  1  0
 25 20  1  0
 33 27  1  0
M  END
>  <pIC50>  (234) 
5.75

>  <ChEMBL_ID>  (234) 
CHEMBL1642128

>  <document_journal>  (234) 
Bioorg. Med. Chem. Lett.

>  <bao_endpoint>  (234) 
BAO_0000190

>  <potential_duplicate>  (234) 
False

>  <uo_units>  (234) 
UO_0000065

>  <canonical_smiles>  (234) 
CC1CC(=O)c2c(cc(C)cc2N1S(=O)(=O)c3ccc4ccccc4c3)N5CCN(C)CC5

>  <parent_molecule_chembl_id>  (234) 
CHEMBL1642128

>  <assay_type>  (234) 
B

>  <src_id>  (234) 
1

>  <ligand_efficiency>  (234) 
{u'le': u'0.24', u'bei': u'12.4', u'sei': u'8.29', u'lle': u'1.66'}

>  <standard_flag>  (234) 
True

>  <molecule_chembl_id>  (234) 
CHEMBL1642128

>  <target_organism>  (234) 
Homo sapiens

>  <standard_units>  (234) 
nM

>  <record_id>  (234) 
1317383

>  <document_chembl_id>  (234) 
CHEMBL1641464

>  <bao_format>  (234) 
BAO_0000219

>  <data_validity_description>  (234) 
None

>  <activity_id>  (234) 
5121968

>  <standard_type>  (234) 
IC50

>  <target_chembl_id>  (234) 
CHEMBL217

>  <data_validity_comment>  (234) 
None

>  <published_value>  (234) 
1784

>  <document_year>  (234) 
2011

>  <target_pref_name>  (234) 
Dopamine D2 receptor

>  <assay_chembl_id>  (234) 
CHEMBL1647768

>  <standard_relation>  (234) 
=

>  <assay_description>  (234) 
Displacement of [3H]spiperone from human dopamine D2 receptor expressed in cells

>  <published_relation>  (234) 
=

>  <standard_value>  (234) 
1784

>  <qudt_units>  (234) 
http://www.openphacts.org/units/Nanomolar

>  <target_tax_id>  (234) 
9606

>  <bao_label>  (234) 
cell-based format

>  <published_units>  (234) 
nM

>  <pchembl_value>  (234) 
5.75

>  <published_type>  (234) 
IC50

>  <activity_comment>  (234) 
None

$$$$

     RDKit          

 33 36  0  0  0  0  0  0  0  0999 V2000
    0.0000    0.0000    0.0000 C   0  0  0  0  0  0  0  0  0  0  0  0
    0.0000    0.0000    0.0000 O   0  0  0  0  0  0  0  0  0  0  0  0
    0.0000    0.0000    0.0000 C   0  0  0  0  0  0  0  0  0  0  0  0
    0.0000    0.0000    0.0000 C   0  0  0  0  0  0  0  0  0  0  0  0
    0.0000    0.0000    0.0000 C   0  0  0  0  0  0  0  0  0  0  0  0
    0.0000    0.0000    0.0000 C   0  0  0  0  0  0  0  0  0  0  0  0
    0.0000    0.0000    0.0000 O   0  0  0  0  0  0  0  0  0  0  0  0
    0.0000    0.0000    0.0000 C   0  0  0  0  0  0  0  0  0  0  0  0
    0.0000    0.0000    0.0000 C   0  0  0  0  0  0  0  0  0  0  0  0
    0.0000    0.0000    0.0000 C   0  0  0  0  0  0  0  0  0  0  0  0
    0.0000    0.0000    0.0000 C   0  0  0  0  0  0  0  0  0  0  0  0
    0.0000    0.0000    0.0000 C   0  0  0  0  0  0  0  0  0  0  0  0
    0.0000    0.0000    0.0000 O   0  0  0  0  0  0  0  0  0  0  0  0
    0.0000    0.0000    0.0000 N   0  0  0  0  0  0  0  0  0  0  0  0
    0.0000    0.0000    0.0000 C   0  0  0  0  0  0  0  0  0  0  0  0
    0.0000    0.0000    0.0000 C   0  0  0  0  0  0  0  0  0  0  0  0
    0.0000    0.0000    0.0000 C   0  0  0  0  0  0  0  0  0  0  0  0
    0.0000    0.0000    0.0000 F   0  0  0  0  0  0  0  0  0  0  0  0
    0.0000    0.0000    0.0000 C   0  0  0  0  0  0  0  0  0  0  0  0
    0.0000    0.0000    0.0000 N   0  0  0  0  0  0  0  0  0  0  0  0
    0.0000    0.0000    0.0000 C   0  0  0  0  0  0  0  0  0  0  0  0
    0.0000    0.0000    0.0000 C   0  0  0  0  0  0  0  0  0  0  0  0
    0.0000    0.0000    0.0000 N   0  0  0  0  0  0  0  0  0  0  0  0
    0.0000    0.0000    0.0000 C   0  0  0  0  0  0  0  0  0  0  0  0
    0.0000    0.0000    0.0000 C   0  0  0  0  0  0  0  0  0  0  0  0
    0.0000    0.0000    0.0000 C   0  0  0  0  0  0  0  0  0  0  0  0
    0.0000    0.0000    0.0000 C   0  0  0  0  0  0  0  0  0  0  0  0
    0.0000    0.0000    0.0000 C   0  0  0  0  0  0  0  0  0  0  0  0
    0.0000    0.0000    0.0000 C   0  0  0  0  0  0  0  0  0  0  0  0
    0.0000    0.0000    0.0000 C   0  0  0  0  0  0  0  0  0  0  0  0
    0.0000    0.0000    0.0000 Cl  0  0  0  0  0  0  0  0  0  0  0  0
    0.0000    0.0000    0.0000 C   0  0  0  0  0  0  0  0  0  0  0  0
    0.0000    0.0000    0.0000 Cl  0  0  0  0  0  0  0  0  0  0  0  0
  1  2  1  0
  2  3  1  0
  3  4  2  0
  4  5  1  0
  5  6  2  0
  6  7  1  0
  7  8  1  0
  8  9  2  0
  9 10  1  0
 10 11  2  0
  8 12  1  0
 12 13  2  0
 12 14  1  0
 14 15  1  0
 15 16  1  0
 16 17  1  0
 17 18  1  0
 17 19  1  0
 19 20  1  0
 20 21  1  0
 21 22  1  0
 22 23  1  0
 23 24  1  0
 24 25  1  0
 23 26  1  0
 26 27  2  0
 27 28  1  0
 28 29  2  0
 29 30  1  0
 30 31  1  0
 30 32  2  0
 32 33  1  0
 11  3  1  0
 10  6  1  0
 25 20  1  0
 32 26  1  0
M  END
>  <pIC50>  (235) 
5.8

>  <ChEMBL_ID>  (235) 
CHEMBL1774533

>  <document_journal>  (235) 
J. Med. Chem.

>  <bao_endpoint>  (235) 
BAO_0000190

>  <potential_duplicate>  (235) 
False

>  <uo_units>  (235) 
UO_0000065

>  <canonical_smiles>  (235) 
COc1ccc2oc(cc2c1)C(=O)NCCC(F)CN3CCN(CC3)c4cccc(Cl)c4Cl

>  <parent_molecule_chembl_id>  (235) 
CHEMBL1774533

>  <assay_type>  (235) 
F

>  <src_id>  (235) 
1

>  <ligand_efficiency>  (235) 
None

>  <standard_flag>  (235) 
True

>  <molecule_chembl_id>  (235) 
CHEMBL1774533

>  <target_organism>  (235) 
Homo sapiens

>  <standard_units>  (235) 
nM

>  <record_id>  (235) 
1422503

>  <document_chembl_id>  (235) 
CHEMBL1772985

>  <bao_format>  (235) 
BAO_0000219

>  <data_validity_description>  (235) 
None

>  <activity_id>  (235) 
6200320

>  <standard_type>  (235) 
IC50

>  <target_chembl_id>  (235) 
CHEMBL217

>  <data_validity_comment>  (235) 
None

>  <published_value>  (235) 
1600

>  <document_year>  (235) 
2011

>  <target_pref_name>  (235) 
Dopamine D2 receptor

>  <assay_chembl_id>  (235) 
CHEMBL1777184

>  <standard_relation>  (235) 
=

>  <assay_description>  (235) 
Antagonist activity at human dopamine D2 receptor expressed in CHOp cells assessed as inhibition of quinpirole-induced mitogenesis

>  <published_relation>  (235) 
=

>  <standard_value>  (235) 
1600

>  <qudt_units>  (235) 
http://www.openphacts.org/units/Nanomolar

>  <target_tax_id>  (235) 
9606

>  <bao_label>  (235) 
cell-based format

>  <published_units>  (235) 
nM

>  <pchembl_value>  (235) 
5.8

>  <published_type>  (235) 
IC50

>  <activity_comment>  (235) 
None

$$$$

     RDKit          

 31 34  0  0  0  0  0  0  0  0999 V2000
    0.0000    0.0000    0.0000 C   0  0  0  0  0  0  0  0  0  0  0  0
    0.0000    0.0000    0.0000 O   0  0  0  0  0  0  0  0  0  0  0  0
    0.0000    0.0000    0.0000 C   0  0  0  0  0  0  0  0  0  0  0  0
    0.0000    0.0000    0.0000 C   0  0  0  0  0  0  0  0  0  0  0  0
    0.0000    0.0000    0.0000 C   0  0  0  0  0  0  0  0  0  0  0  0
    0.0000    0.0000    0.0000 C   0  0  0  0  0  0  0  0  0  0  0  0
    0.0000    0.0000    0.0000 C   0  0  0  0  0  0  0  0  0  0  0  0
    0.0000    0.0000    0.0000 C   0  0  0  0  0  0  0  0  0  0  0  0
    0.0000    0.0000    0.0000 N   0  0  0  0  0  0  0  0  0  0  0  0
    0.0000    0.0000    0.0000 C   0  0  0  0  0  0  0  0  0  0  0  0
    0.0000    0.0000    0.0000 C   0  0  0  0  0  0  0  0  0  0  0  0
    0.0000    0.0000    0.0000 N   0  0  0  0  0  0  0  0  0  0  0  0
    0.0000    0.0000    0.0000 C   0  0  0  0  0  0  0  0  0  0  0  0
    0.0000    0.0000    0.0000 C   0  0  0  0  0  0  0  0  0  0  0  0
    0.0000    0.0000    0.0000 F   0  0  0  0  0  0  0  0  0  0  0  0
    0.0000    0.0000    0.0000 C   0  0  0  0  0  0  0  0  0  0  0  0
    0.0000    0.0000    0.0000 C   0  0  0  0  0  0  0  0  0  0  0  0
    0.0000    0.0000    0.0000 N   0  0  0  0  0  0  0  0  0  0  0  0
    0.0000    0.0000    0.0000 C   0  0  0  0  0  0  0  0  0  0  0  0
    0.0000    0.0000    0.0000 O   0  0  0  0  0  0  0  0  0  0  0  0
    0.0000    0.0000    0.0000 C   0  0  0  0  0  0  0  0  0  0  0  0
    0.0000    0.0000    0.0000 C   0  0  0  0  0  0  0  0  0  0  0  0
    0.0000    0.0000    0.0000 C   0  0  0  0  0  0  0  0  0  0  0  0
    0.0000    0.0000    0.0000 C   0  0  0  0  0  0  0  0  0  0  0  0
    0.0000    0.0000    0.0000 C   0  0  0  0  0  0  0  0  0  0  0  0
    0.0000    0.0000    0.0000 C   0  0  0  0  0  0  0  0  0  0  0  0
    0.0000    0.0000    0.0000 C   0  0  0  0  0  0  0  0  0  0  0  0
    0.0000    0.0000    0.0000 C   0  0  0  0  0  0  0  0  0  0  0  0
    0.0000    0.0000    0.0000 S   0  0  0  0  0  0  0  0  0  0  0  0
    0.0000    0.0000    0.0000 C   0  0  0  0  0  0  0  0  0  0  0  0
    0.0000    0.0000    0.0000 C   0  0  0  0  0  0  0  0  0  0  0  0
  1  2  1  0
  2  3  1  0
  3  4  2  0
  4  5  1  0
  5  6  2  0
  6  7  1  0
  7  8  2  0
  8  9  1  0
  9 10  1  0
 10 11  1  0
 11 12  1  0
 12 13  1  0
 13 14  1  0
 14 15  1  0
 14 16  1  0
 16 17  1  0
 17 18  1  0
 18 19  1  0
 19 20  2  0
 19 21  1  0
 21 22  2  0
 22 23  1  0
 23 24  2  0
 24 25  1  0
 25 26  2  0
 26 27  1  0
 27 28  2  0
 28 29  1  0
 12 30  1  0
 30 31  1  0
  8  3  1  0
 31  9  1  0
 29 21  1  0
 28 23  1  0
M  END
>  <pIC50>  (236) 
6.38

>  <ChEMBL_ID>  (236) 
CHEMBL1774538

>  <document_journal>  (236) 
J. Med. Chem.

>  <bao_endpoint>  (236) 
BAO_0000190

>  <potential_duplicate>  (236) 
False

>  <uo_units>  (236) 
UO_0000065

>  <canonical_smiles>  (236) 
COc1ccccc1N2CCN(CC(F)CCNC(=O)c3cc4ccccc4s3)CC2

>  <parent_molecule_chembl_id>  (236) 
CHEMBL1774538

>  <assay_type>  (236) 
F

>  <src_id>  (236) 
1

>  <ligand_efficiency>  (236) 
None

>  <standard_flag>  (236) 
True

>  <molecule_chembl_id>  (236) 
CHEMBL1774538

>  <target_organism>  (236) 
Homo sapiens

>  <standard_units>  (236) 
nM

>  <record_id>  (236) 
1422508

>  <document_chembl_id>  (236) 
CHEMBL1772985

>  <bao_format>  (236) 
BAO_0000219

>  <data_validity_description>  (236) 
None

>  <activity_id>  (236) 
6200321

>  <standard_type>  (236) 
IC50

>  <target_chembl_id>  (236) 
CHEMBL217

>  <data_validity_comment>  (236) 
None

>  <published_value>  (236) 
421

>  <document_year>  (236) 
2011

>  <target_pref_name>  (236) 
Dopamine D2 receptor

>  <assay_chembl_id>  (236) 
CHEMBL1777184

>  <standard_relation>  (236) 
=

>  <assay_description>  (236) 
Antagonist activity at human dopamine D2 receptor expressed in CHOp cells assessed as inhibition of quinpirole-induced mitogenesis

>  <published_relation>  (236) 
=

>  <standard_value>  (236) 
421

>  <qudt_units>  (236) 
http://www.openphacts.org/units/Nanomolar

>  <target_tax_id>  (236) 
9606

>  <bao_label>  (236) 
cell-based format

>  <published_units>  (236) 
nM

>  <pchembl_value>  (236) 
6.38

>  <published_type>  (236) 
IC50

>  <activity_comment>  (236) 
None

$$$$

     RDKit          

 23 24  0  0  0  0  0  0  0  0999 V2000
    0.0000    0.0000    0.0000 C   0  0  0  0  0  0  0  0  0  0  0  0
    0.0000    0.0000    0.0000 C   0  0  0  0  0  0  0  0  0  0  0  0
    0.0000    0.0000    0.0000 N   0  0  0  0  0  0  0  0  0  0  0  0
    0.0000    0.0000    0.0000 C   0  0  0  0  0  0  0  0  0  0  0  0
    0.0000    0.0000    0.0000 C   0  0  0  0  0  0  0  0  0  0  0  0
    0.0000    0.0000    0.0000 C   0  0  0  0  0  0  0  0  0  0  0  0
    0.0000    0.0000    0.0000 C   0  0  0  0  0  0  0  0  0  0  0  0
    0.0000    0.0000    0.0000 C   0  0  0  0  0  0  0  0  0  0  0  0
    0.0000    0.0000    0.0000 N   0  0  0  0  0  0  0  0  0  0  0  0
    0.0000    0.0000    0.0000 C   0  0  0  0  0  0  0  0  0  0  0  0
    0.0000    0.0000    0.0000 O   0  0  0  0  0  0  0  0  0  0  0  0
    0.0000    0.0000    0.0000 C   0  0  0  0  0  0  0  0  0  0  0  0
    0.0000    0.0000    0.0000 C   0  0  0  0  0  0  0  0  0  0  0  0
    0.0000    0.0000    0.0000 C   0  0  0  0  0  0  0  0  0  0  0  0
    0.0000    0.0000    0.0000 C   0  0  0  0  0  0  0  0  0  0  0  0
    0.0000    0.0000    0.0000 C   0  0  0  0  0  0  0  0  0  0  0  0
    0.0000    0.0000    0.0000 C   0  0  0  0  0  0  0  0  0  0  0  0
    0.0000    0.0000    0.0000 O   0  0  0  0  0  0  0  0  0  0  0  0
    0.0000    0.0000    0.0000 C   0  0  0  0  0  0  0  0  0  0  0  0
    0.0000    0.0000    0.0000 S   0  0  0  0  0  0  0  0  0  0  0  0
    0.0000    0.0000    0.0000 O   0  0  0  0  0  0  0  0  0  0  0  0
    0.0000    0.0000    0.0000 O   0  0  0  0  0  0  0  0  0  0  0  0
    0.0000    0.0000    0.0000 N   0  0  0  0  0  0  0  0  0  0  0  0
  1  2  1  0
  2  3  1  0
  3  4  1  0
  4  5  1  0
  5  6  1  0
  6  7  1  0
  7  8  1  0
  8  9  1  0
  9 10  1  0
 10 11  2  0
 10 12  1  0
 12 13  2  0
 13 14  1  0
 14 15  2  0
 15 16  1  0
 16 17  2  0
 17 18  1  0
 18 19  1  0
 14 20  1  0
 20 21  2  0
 20 22  2  0
 20 23  1  0
  7  3  1  0
 17 12  1  0
M  END
>  <pIC50>  (237) 
7.34

>  <ChEMBL_ID>  (237) 
CHEMBL26

>  <document_journal>  (237) 
J. Med. Chem.

>  <bao_endpoint>  (237) 
BAO_0000190

>  <potential_duplicate>  (237) 
False

>  <uo_units>  (237) 
UO_0000065

>  <canonical_smiles>  (237) 
CCN1CCCC1CNC(=O)c2cc(ccc2OC)S(=O)(=O)N

>  <parent_molecule_chembl_id>  (237) 
CHEMBL26

>  <assay_type>  (237) 
F

>  <src_id>  (237) 
1

>  <ligand_efficiency>  (237) 
None

>  <standard_flag>  (237) 
True

>  <molecule_chembl_id>  (237) 
CHEMBL26

>  <target_organism>  (237) 
Homo sapiens

>  <standard_units>  (237) 
nM

>  <record_id>  (237) 
1422528

>  <document_chembl_id>  (237) 
CHEMBL1772985

>  <bao_format>  (237) 
BAO_0000219

>  <data_validity_description>  (237) 
None

>  <activity_id>  (237) 
6200322

>  <standard_type>  (237) 
IC50

>  <target_chembl_id>  (237) 
CHEMBL217

>  <data_validity_comment>  (237) 
None

>  <published_value>  (237) 
10.28

>  <document_year>  (237) 
2011

>  <target_pref_name>  (237) 
Dopamine D2 receptor

>  <assay_chembl_id>  (237) 
CHEMBL1777184

>  <standard_relation>  (237) 
=

>  <assay_description>  (237) 
Antagonist activity at human dopamine D2 receptor expressed in CHOp cells assessed as inhibition of quinpirole-induced mitogenesis

>  <published_relation>  (237) 
=

>  <standard_value>  (237) 
10.28

>  <qudt_units>  (237) 
http://www.openphacts.org/units/Nanomolar

>  <target_tax_id>  (237) 
9606

>  <bao_label>  (237) 
cell-based format

>  <published_units>  (237) 
nM

>  <pchembl_value>  (237) 
7.99

>  <published_type>  (237) 
IC50

>  <activity_comment>  (237) 
None

$$$$

     RDKit          

 33 35  0  0  0  0  0  0  0  0999 V2000
    0.0000    0.0000    0.0000 C   0  0  0  0  0  0  0  0  0  0  0  0
    0.0000    0.0000    0.0000 C   0  0  0  0  0  0  0  0  0  0  0  0
    0.0000    0.0000    0.0000 O   0  0  0  0  0  0  0  0  0  0  0  0
    0.0000    0.0000    0.0000 C   0  0  0  0  0  0  0  0  0  0  0  0
    0.0000    0.0000    0.0000 C   0  0  0  0  0  0  0  0  0  0  0  0
    0.0000    0.0000    0.0000 C   0  0  0  0  0  0  0  0  0  0  0  0
    0.0000    0.0000    0.0000 C   0  0  0  0  0  0  0  0  0  0  0  0
    0.0000    0.0000    0.0000 C   0  0  0  0  0  0  0  0  0  0  0  0
    0.0000    0.0000    0.0000 C   0  0  0  0  0  0  0  0  0  0  0  0
    0.0000    0.0000    0.0000 N   0  0  0  0  0  0  0  0  0  0  0  0
    0.0000    0.0000    0.0000 C   0  0  0  0  0  0  0  0  0  0  0  0
    0.0000    0.0000    0.0000 C   0  0  0  0  0  0  0  0  0  0  0  0
    0.0000    0.0000    0.0000 C   0  0  0  0  0  0  0  0  0  0  0  0
    0.0000    0.0000    0.0000 S   0  0  0  0  0  0  0  0  0  0  0  0
    0.0000    0.0000    0.0000 C   0  0  0  0  0  0  0  0  0  0  0  0
    0.0000    0.0000    0.0000 C   0  0  0  0  0  0  0  0  0  0  0  0
    0.0000    0.0000    0.0000 N   0  0  0  0  0  0  0  0  0  0  0  0
    0.0000    0.0000    0.0000 C   0  0  0  0  0  0  0  0  0  0  0  0
    0.0000    0.0000    0.0000 C   0  0  0  0  0  0  0  0  0  0  0  0
    0.0000    0.0000    0.0000 O   0  0  0  0  0  0  0  0  0  0  0  0
    0.0000    0.0000    0.0000 C   0  0  0  0  0  0  0  0  0  0  0  0
    0.0000    0.0000    0.0000 C   0  0  0  0  0  0  0  0  0  0  0  0
    0.0000    0.0000    0.0000 C   0  0  0  0  0  0  0  0  0  0  0  0
    0.0000    0.0000    0.0000 C   0  0  0  0  0  0  0  0  0  0  0  0
    0.0000    0.0000    0.0000 O   0  0  0  0  0  0  0  0  0  0  0  0
    0.0000    0.0000    0.0000 C   0  0  0  0  0  0  0  0  0  0  0  0
    0.0000    0.0000    0.0000 N   0  0  0  0  0  0  0  0  0  0  0  0
    0.0000    0.0000    0.0000 C   0  0  0  0  0  0  0  0  0  0  0  0
    0.0000    0.0000    0.0000 O   0  0  0  0  0  0  0  0  0  0  0  0
    0.0000    0.0000    0.0000 S   0  0  0  0  0  0  0  0  0  0  0  0
    0.0000    0.0000    0.0000 C   0  0  0  0  0  0  0  0  0  0  0  0
    0.0000    0.0000    0.0000 C   0  0  0  0  0  0  0  0  0  0  0  0
    0.0000    0.0000    0.0000 C   0  0  0  0  0  0  0  0  0  0  0  0
  1  2  1  0
  2  3  1  0
  3  4  1  0
  4  5  2  0
  5  6  1  0
  6  7  2  0
  7  8  1  0
  8  9  1  0
  9 10  1  0
 10 11  1  0
 11 12  1  0
 12 13  1  0
 13 14  1  0
 14 15  1  0
 15 16  1  0
 16 17  1  0
 17 18  1  0
 18 19  1  0
 19 20  1  0
 19 21  1  0
 21 22  2  0
 22 23  1  0
 23 24  2  0
 24 25  1  0
 24 26  1  0
 26 27  1  0
 27 28  1  0
 28 29  2  0
 28 30  1  0
 30 31  1  0
  7 32  1  0
 32 33  2  0
 33  4  1  0
 31 21  1  0
 31 26  2  0
M  END
>  <pIC50>  (238) 
5.4

>  <ChEMBL_ID>  (238) 
CHEMBL1807825

>  <document_journal>  (238) 
Bioorg. Med. Chem. Lett.

>  <bao_endpoint>  (238) 
BAO_0000190

>  <potential_duplicate>  (238) 
False

>  <uo_units>  (238) 
UO_0000065

>  <canonical_smiles>  (238) 
CCOc1ccc(CCNCCCSCCNC[C@H](O)c2ccc(O)c3NC(=O)Sc23)cc1

>  <parent_molecule_chembl_id>  (238) 
CHEMBL1807825

>  <assay_type>  (238) 
B

>  <src_id>  (238) 
1

>  <ligand_efficiency>  (238) 
{u'le': u'0.22', u'bei': u'10.98', u'sei': u'3.52', u'lle': u'2.2'}

>  <standard_flag>  (238) 
True

>  <molecule_chembl_id>  (238) 
CHEMBL1807825

>  <target_organism>  (238) 
Homo sapiens

>  <standard_units>  (238) 
nM

>  <record_id>  (238) 
1444249

>  <document_chembl_id>  (238) 
CHEMBL1806408

>  <bao_format>  (238) 
BAO_0000357

>  <data_validity_description>  (238) 
None

>  <activity_id>  (238) 
6291240

>  <standard_type>  (238) 
IC50

>  <target_chembl_id>  (238) 
CHEMBL217

>  <data_validity_comment>  (238) 
None

>  <published_value>  (238) 
5.4

>  <document_year>  (238) 
2011

>  <target_pref_name>  (238) 
Dopamine D2 receptor

>  <assay_chembl_id>  (238) 
CHEMBL1810621

>  <standard_relation>  (238) 
=

>  <assay_description>  (238) 
Binding affinity to dopamine 2 receptor

>  <published_relation>  (238) 
=

>  <standard_value>  (238) 
3981.07

>  <qudt_units>  (238) 
http://www.openphacts.org/units/Nanomolar

>  <target_tax_id>  (238) 
9606

>  <bao_label>  (238) 
single protein format

>  <published_units>  (238) 
None

>  <pchembl_value>  (238) 
5.4

>  <published_type>  (238) 
pIC50

>  <activity_comment>  (238) 
None

$$$$

     RDKit          

 32 34  0  0  0  0  0  0  0  0999 V2000
    0.0000    0.0000    0.0000 C   0  0  0  0  0  0  0  0  0  0  0  0
    0.0000    0.0000    0.0000 C   0  0  0  0  0  0  0  0  0  0  0  0
    0.0000    0.0000    0.0000 C   0  0  0  0  0  0  0  0  0  0  0  0
    0.0000    0.0000    0.0000 C   0  0  0  0  0  0  0  0  0  0  0  0
    0.0000    0.0000    0.0000 C   0  0  0  0  0  0  0  0  0  0  0  0
    0.0000    0.0000    0.0000 C   0  0  0  0  0  0  0  0  0  0  0  0
    0.0000    0.0000    0.0000 C   0  0  0  0  0  0  0  0  0  0  0  0
    0.0000    0.0000    0.0000 C   0  0  0  0  0  0  0  0  0  0  0  0
    0.0000    0.0000    0.0000 N   0  0  0  0  0  0  0  0  0  0  0  0
    0.0000    0.0000    0.0000 C   0  0  0  0  0  0  0  0  0  0  0  0
    0.0000    0.0000    0.0000 C   0  0  0  0  0  0  0  0  0  0  0  0
    0.0000    0.0000    0.0000 C   0  0  0  0  0  0  0  0  0  0  0  0
    0.0000    0.0000    0.0000 S   0  0  0  0  0  0  0  0  0  0  0  0
    0.0000    0.0000    0.0000 C   0  0  0  0  0  0  0  0  0  0  0  0
    0.0000    0.0000    0.0000 C   0  0  0  0  0  0  0  0  0  0  0  0
    0.0000    0.0000    0.0000 N   0  0  0  0  0  0  0  0  0  0  0  0
    0.0000    0.0000    0.0000 C   0  0  0  0  0  0  0  0  0  0  0  0
    0.0000    0.0000    0.0000 C   0  0  0  0  0  0  0  0  0  0  0  0
    0.0000    0.0000    0.0000 O   0  0  0  0  0  0  0  0  0  0  0  0
    0.0000    0.0000    0.0000 C   0  0  0  0  0  0  0  0  0  0  0  0
    0.0000    0.0000    0.0000 C   0  0  0  0  0  0  0  0  0  0  0  0
    0.0000    0.0000    0.0000 C   0  0  0  0  0  0  0  0  0  0  0  0
    0.0000    0.0000    0.0000 C   0  0  0  0  0  0  0  0  0  0  0  0
    0.0000    0.0000    0.0000 O   0  0  0  0  0  0  0  0  0  0  0  0
    0.0000    0.0000    0.0000 C   0  0  0  0  0  0  0  0  0  0  0  0
    0.0000    0.0000    0.0000 N   0  0  0  0  0  0  0  0  0  0  0  0
    0.0000    0.0000    0.0000 C   0  0  0  0  0  0  0  0  0  0  0  0
    0.0000    0.0000    0.0000 O   0  0  0  0  0  0  0  0  0  0  0  0
    0.0000    0.0000    0.0000 S   0  0  0  0  0  0  0  0  0  0  0  0
    0.0000    0.0000    0.0000 C   0  0  0  0  0  0  0  0  0  0  0  0
    0.0000    0.0000    0.0000 C   0  0  0  0  0  0  0  0  0  0  0  0
    0.0000    0.0000    0.0000 C   0  0  0  0  0  0  0  0  0  0  0  0
  1  2  1  0
  2  3  1  0
  3  4  2  0
  4  5  1  0
  5  6  2  0
  6  7  1  0
  7  8  1  0
  8  9  1  0
  9 10  1  0
 10 11  1  0
 11 12  1  0
 12 13  1  0
 13 14  1  0
 14 15  1  0
 15 16  1  0
 16 17  1  0
 17 18  1  0
 18 19  1  0
 18 20  1  0
 20 21  2  0
 21 22  1  0
 22 23  2  0
 23 24  1  0
 23 25  1  0
 25 26  1  0
 26 27  1  0
 27 28  2  0
 27 29  1  0
 29 30  1  0
  6 31  1  0
 31 32  2  0
 32  3  1  0
 30 20  1  0
 30 25  2  0
M  END
>  <pIC50>  (239) 
5.6

>  <ChEMBL_ID>  (239) 
CHEMBL1807824

>  <document_journal>  (239) 
Bioorg. Med. Chem. Lett.

>  <bao_endpoint>  (239) 
BAO_0000190

>  <potential_duplicate>  (239) 
False

>  <uo_units>  (239) 
UO_0000065

>  <canonical_smiles>  (239) 
CCc1ccc(CCNCCCSCCNC[C@H](O)c2ccc(O)c3NC(=O)Sc23)cc1

>  <parent_molecule_chembl_id>  (239) 
CHEMBL1807824

>  <assay_type>  (239) 
B

>  <src_id>  (239) 
1

>  <ligand_efficiency>  (239) 
{u'le': u'0.24', u'bei': u'11.77', u'sei': u'3.88', u'lle': u'1.79'}

>  <standard_flag>  (239) 
True

>  <molecule_chembl_id>  (239) 
CHEMBL1807824

>  <target_organism>  (239) 
Homo sapiens

>  <standard_units>  (239) 
nM

>  <record_id>  (239) 
1444248

>  <document_chembl_id>  (239) 
CHEMBL1806408

>  <bao_format>  (239) 
BAO_0000357

>  <data_validity_description>  (239) 
None

>  <activity_id>  (239) 
6291241

>  <standard_type>  (239) 
IC50

>  <target_chembl_id>  (239) 
CHEMBL217

>  <data_validity_comment>  (239) 
None

>  <published_value>  (239) 
5.6

>  <document_year>  (239) 
2011

>  <target_pref_name>  (239) 
Dopamine D2 receptor

>  <assay_chembl_id>  (239) 
CHEMBL1810621

>  <standard_relation>  (239) 
=

>  <assay_description>  (239) 
Binding affinity to dopamine 2 receptor

>  <published_relation>  (239) 
=

>  <standard_value>  (239) 
2511.89

>  <qudt_units>  (239) 
http://www.openphacts.org/units/Nanomolar

>  <target_tax_id>  (239) 
9606

>  <bao_label>  (239) 
single protein format

>  <published_units>  (239) 
None

>  <pchembl_value>  (239) 
5.6

>  <published_type>  (239) 
pIC50

>  <activity_comment>  (239) 
None

$$$$

     RDKit          

 30 32  0  0  0  0  0  0  0  0999 V2000
    0.0000    0.0000    0.0000 O   0  0  0  0  0  0  0  0  0  0  0  0
    0.0000    0.0000    0.0000 C   0  0  0  0  0  0  0  0  0  0  0  0
    0.0000    0.0000    0.0000 C   0  0  0  0  0  0  0  0  0  0  0  0
    0.0000    0.0000    0.0000 N   0  0  0  0  0  0  0  0  0  0  0  0
    0.0000    0.0000    0.0000 C   0  0  0  0  0  0  0  0  0  0  0  0
    0.0000    0.0000    0.0000 C   0  0  0  0  0  0  0  0  0  0  0  0
    0.0000    0.0000    0.0000 S   0  0  0  0  0  0  0  0  0  0  0  0
    0.0000    0.0000    0.0000 C   0  0  0  0  0  0  0  0  0  0  0  0
    0.0000    0.0000    0.0000 C   0  0  0  0  0  0  0  0  0  0  0  0
    0.0000    0.0000    0.0000 C   0  0  0  0  0  0  0  0  0  0  0  0
    0.0000    0.0000    0.0000 N   0  0  0  0  0  0  0  0  0  0  0  0
    0.0000    0.0000    0.0000 C   0  0  0  0  0  0  0  0  0  0  0  0
    0.0000    0.0000    0.0000 C   0  0  0  0  0  0  0  0  0  0  0  0
    0.0000    0.0000    0.0000 C   0  0  0  0  0  0  0  0  0  0  0  0
    0.0000    0.0000    0.0000 C   0  0  0  0  0  0  0  0  0  0  0  0
    0.0000    0.0000    0.0000 C   0  0  0  0  0  0  0  0  0  0  0  0
    0.0000    0.0000    0.0000 C   0  0  0  0  0  0  0  0  0  0  0  0
    0.0000    0.0000    0.0000 C   0  0  0  0  0  0  0  0  0  0  0  0
    0.0000    0.0000    0.0000 C   0  0  0  0  0  0  0  0  0  0  0  0
    0.0000    0.0000    0.0000 C   0  0  0  0  0  0  0  0  0  0  0  0
    0.0000    0.0000    0.0000 C   0  0  0  0  0  0  0  0  0  0  0  0
    0.0000    0.0000    0.0000 C   0  0  0  0  0  0  0  0  0  0  0  0
    0.0000    0.0000    0.0000 C   0  0  0  0  0  0  0  0  0  0  0  0
    0.0000    0.0000    0.0000 O   0  0  0  0  0  0  0  0  0  0  0  0
    0.0000    0.0000    0.0000 C   0  0  0  0  0  0  0  0  0  0  0  0
    0.0000    0.0000    0.0000 N   0  0  0  0  0  0  0  0  0  0  0  0
    0.0000    0.0000    0.0000 C   0  0  0  0  0  0  0  0  0  0  0  0
    0.0000    0.0000    0.0000 O   0  0  0  0  0  0  0  0  0  0  0  0
    0.0000    0.0000    0.0000 S   0  0  0  0  0  0  0  0  0  0  0  0
    0.0000    0.0000    0.0000 C   0  0  0  0  0  0  0  0  0  0  0  0
  1  2  1  0
  2  3  1  0
  3  4  1  0
  4  5  1  0
  5  6  1  0
  6  7  1  0
  7  8  1  0
  8  9  1  0
  9 10  1  0
 10 11  1  0
 11 12  1  0
 12 13  1  0
 13 14  1  0
 14 15  2  0
 15 16  1  0
 16 17  2  0
 17 18  1  0
 18 19  2  0
  2 20  1  0
 20 21  2  0
 21 22  1  0
 22 23  2  0
 23 24  1  0
 23 25  1  0
 25 26  1  0
 26 27  1  0
 27 28  2  0
 27 29  1  0
 29 30  1  0
 19 14  1  0
 30 20  1  0
 30 25  2  0
M  END
>  <pIC50>  (240) 
5.4

>  <ChEMBL_ID>  (240) 
CHEMBL1807823

>  <document_journal>  (240) 
Bioorg. Med. Chem. Lett.

>  <bao_endpoint>  (240) 
BAO_0000190

>  <potential_duplicate>  (240) 
False

>  <uo_units>  (240) 
UO_0000065

>  <canonical_smiles>  (240) 
O[C@@H](CNCCSCCCNCCc1ccccc1)c2ccc(O)c3NC(=O)Sc23

>  <parent_molecule_chembl_id>  (240) 
CHEMBL1807823

>  <assay_type>  (240) 
B

>  <src_id>  (240) 
1

>  <ligand_efficiency>  (240) 
{u'le': u'0.25', u'bei': u'12.06', u'sei': u'3.74', u'lle': u'2.53'}

>  <standard_flag>  (240) 
True

>  <molecule_chembl_id>  (240) 
CHEMBL1807823

>  <target_organism>  (240) 
Homo sapiens

>  <standard_units>  (240) 
nM

>  <record_id>  (240) 
1444247

>  <document_chembl_id>  (240) 
CHEMBL1806408

>  <bao_format>  (240) 
BAO_0000357

>  <data_validity_description>  (240) 
None

>  <activity_id>  (240) 
6291242

>  <standard_type>  (240) 
IC50

>  <target_chembl_id>  (240) 
CHEMBL217

>  <data_validity_comment>  (240) 
None

>  <published_value>  (240) 
5.4

>  <document_year>  (240) 
2011

>  <target_pref_name>  (240) 
Dopamine D2 receptor

>  <assay_chembl_id>  (240) 
CHEMBL1810621

>  <standard_relation>  (240) 
=

>  <assay_description>  (240) 
Binding affinity to dopamine 2 receptor

>  <published_relation>  (240) 
=

>  <standard_value>  (240) 
3981.07

>  <qudt_units>  (240) 
http://www.openphacts.org/units/Nanomolar

>  <target_tax_id>  (240) 
9606

>  <bao_label>  (240) 
single protein format

>  <published_units>  (240) 
None

>  <pchembl_value>  (240) 
5.4

>  <published_type>  (240) 
pIC50

>  <activity_comment>  (240) 
None

$$$$

     RDKit          

 30 32  0  0  0  0  0  0  0  0999 V2000
    0.0000    0.0000    0.0000 O   0  0  0  0  0  0  0  0  0  0  0  0
    0.0000    0.0000    0.0000 C   0  0  0  0  0  0  0  0  0  0  0  0
    0.0000    0.0000    0.0000 C   0  0  0  0  0  0  0  0  0  0  0  0
    0.0000    0.0000    0.0000 N   0  0  0  0  0  0  0  0  0  0  0  0
    0.0000    0.0000    0.0000 C   0  0  0  0  0  0  0  0  0  0  0  0
    0.0000    0.0000    0.0000 C   0  0  0  0  0  0  0  0  0  0  0  0
    0.0000    0.0000    0.0000 C   0  0  0  0  0  0  0  0  0  0  0  0
    0.0000    0.0000    0.0000 O   0  0  0  0  0  0  0  0  0  0  0  0
    0.0000    0.0000    0.0000 C   0  0  0  0  0  0  0  0  0  0  0  0
    0.0000    0.0000    0.0000 C   0  0  0  0  0  0  0  0  0  0  0  0
    0.0000    0.0000    0.0000 O   0  0  0  0  0  0  0  0  0  0  0  0
    0.0000    0.0000    0.0000 C   0  0  0  0  0  0  0  0  0  0  0  0
    0.0000    0.0000    0.0000 C   0  0  0  0  0  0  0  0  0  0  0  0
    0.0000    0.0000    0.0000 C   0  0  0  0  0  0  0  0  0  0  0  0
    0.0000    0.0000    0.0000 C   0  0  0  0  0  0  0  0  0  0  0  0
    0.0000    0.0000    0.0000 C   0  0  0  0  0  0  0  0  0  0  0  0
    0.0000    0.0000    0.0000 C   0  0  0  0  0  0  0  0  0  0  0  0
    0.0000    0.0000    0.0000 C   0  0  0  0  0  0  0  0  0  0  0  0
    0.0000    0.0000    0.0000 C   0  0  0  0  0  0  0  0  0  0  0  0
    0.0000    0.0000    0.0000 C   0  0  0  0  0  0  0  0  0  0  0  0
    0.0000    0.0000    0.0000 C   0  0  0  0  0  0  0  0  0  0  0  0
    0.0000    0.0000    0.0000 C   0  0  0  0  0  0  0  0  0  0  0  0
    0.0000    0.0000    0.0000 C   0  0  0  0  0  0  0  0  0  0  0  0
    0.0000    0.0000    0.0000 O   0  0  0  0  0  0  0  0  0  0  0  0
    0.0000    0.0000    0.0000 C   0  0  0  0  0  0  0  0  0  0  0  0
    0.0000    0.0000    0.0000 N   0  0  0  0  0  0  0  0  0  0  0  0
    0.0000    0.0000    0.0000 C   0  0  0  0  0  0  0  0  0  0  0  0
    0.0000    0.0000    0.0000 O   0  0  0  0  0  0  0  0  0  0  0  0
    0.0000    0.0000    0.0000 S   0  0  0  0  0  0  0  0  0  0  0  0
    0.0000    0.0000    0.0000 C   0  0  0  0  0  0  0  0  0  0  0  0
  1  2  1  0
  2  3  1  0
  3  4  1  0
  4  5  1  0
  5  6  1  0
  6  7  1  0
  7  8  1  0
  8  9  1  0
  9 10  1  0
 10 11  1  0
 11 12  1  0
 12 13  1  0
 13 14  1  0
 14 15  2  0
 15 16  1  0
 16 17  2  0
 17 18  1  0
 18 19  2  0
  2 20  1  0
 20 21  2  0
 21 22  1  0
 22 23  2  0
 23 24  1  0
 23 25  1  0
 25 26  1  0
 26 27  1  0
 27 28  2  0
 27 29  1  0
 29 30  1  0
 19 14  1  0
 30 20  1  0
 30 25  2  0
M  END
>  <pIC50>  (241) 
6.1

>  <ChEMBL_ID>  (241) 
CHEMBL1807821

>  <document_journal>  (241) 
Bioorg. Med. Chem. Lett.

>  <bao_endpoint>  (241) 
BAO_0000190

>  <potential_duplicate>  (241) 
False

>  <uo_units>  (241) 
UO_0000065

>  <canonical_smiles>  (241) 
O[C@@H](CNCCCOCCOCCc1ccccc1)c2ccc(O)c3NC(=O)Sc23

>  <parent_molecule_chembl_id>  (241) 
CHEMBL1807821

>  <assay_type>  (241) 
B

>  <src_id>  (241) 
1

>  <ligand_efficiency>  (241) 
{u'le': u'0.28', u'bei': u'14.1', u'sei': u'4.87', u'lle': u'3.71'}

>  <standard_flag>  (241) 
True

>  <molecule_chembl_id>  (241) 
CHEMBL1807821

>  <target_organism>  (241) 
Homo sapiens

>  <standard_units>  (241) 
nM

>  <record_id>  (241) 
1444245

>  <document_chembl_id>  (241) 
CHEMBL1806408

>  <bao_format>  (241) 
BAO_0000357

>  <data_validity_description>  (241) 
None

>  <activity_id>  (241) 
6291244

>  <standard_type>  (241) 
IC50

>  <target_chembl_id>  (241) 
CHEMBL217

>  <data_validity_comment>  (241) 
None

>  <published_value>  (241) 
6.1

>  <document_year>  (241) 
2011

>  <target_pref_name>  (241) 
Dopamine D2 receptor

>  <assay_chembl_id>  (241) 
CHEMBL1810621

>  <standard_relation>  (241) 
=

>  <assay_description>  (241) 
Binding affinity to dopamine 2 receptor

>  <published_relation>  (241) 
=

>  <standard_value>  (241) 
794.33

>  <qudt_units>  (241) 
http://www.openphacts.org/units/Nanomolar

>  <target_tax_id>  (241) 
9606

>  <bao_label>  (241) 
single protein format

>  <published_units>  (241) 
None

>  <pchembl_value>  (241) 
6.1

>  <published_type>  (241) 
pIC50

>  <activity_comment>  (241) 
None

$$$$

     RDKit          

 34 37  0  0  0  0  0  0  0  0999 V2000
    0.0000    0.0000    0.0000 O   0  0  0  0  0  0  0  0  0  0  0  0
    0.0000    0.0000    0.0000 C   0  0  0  0  0  0  0  0  0  0  0  0
    0.0000    0.0000    0.0000 C   0  0  0  0  0  0  0  0  0  0  0  0
    0.0000    0.0000    0.0000 N   0  0  0  0  0  0  0  0  0  0  0  0
    0.0000    0.0000    0.0000 C   0  0  0  0  0  0  0  0  0  0  0  0
    0.0000    0.0000    0.0000 C   0  0  0  0  0  0  0  0  0  0  0  0
    0.0000    0.0000    0.0000 C   0  0  0  0  0  0  0  0  0  0  0  0
    0.0000    0.0000    0.0000 S   0  0  0  0  0  0  0  0  0  0  0  0
    0.0000    0.0000    0.0000 C   0  0  0  0  0  0  0  0  0  0  0  0
    0.0000    0.0000    0.0000 C   0  0  0  0  0  0  0  0  0  0  0  0
    0.0000    0.0000    0.0000 O   0  0  0  0  0  0  0  0  0  0  0  0
    0.0000    0.0000    0.0000 C   0  0  0  0  0  0  0  0  0  0  0  0
    0.0000    0.0000    0.0000 C   0  0  0  0  0  0  0  0  0  0  0  0
    0.0000    0.0000    0.0000 C   0  0  0  0  0  0  0  0  0  0  0  0
    0.0000    0.0000    0.0000 C   0  0  0  0  0  0  0  0  0  0  0  0
    0.0000    0.0000    0.0000 C   0  0  0  0  0  0  0  0  0  0  0  0
    0.0000    0.0000    0.0000 C   0  0  0  0  0  0  0  0  0  0  0  0
    0.0000    0.0000    0.0000 C   0  0  0  0  0  0  0  0  0  0  0  0
    0.0000    0.0000    0.0000 C   0  0  0  0  0  0  0  0  0  0  0  0
    0.0000    0.0000    0.0000 C   0  0  0  0  0  0  0  0  0  0  0  0
    0.0000    0.0000    0.0000 C   0  0  0  0  0  0  0  0  0  0  0  0
    0.0000    0.0000    0.0000 C   0  0  0  0  0  0  0  0  0  0  0  0
    0.0000    0.0000    0.0000 C   0  0  0  0  0  0  0  0  0  0  0  0
    0.0000    0.0000    0.0000 C   0  0  0  0  0  0  0  0  0  0  0  0
    0.0000    0.0000    0.0000 C   0  0  0  0  0  0  0  0  0  0  0  0
    0.0000    0.0000    0.0000 C   0  0  0  0  0  0  0  0  0  0  0  0
    0.0000    0.0000    0.0000 C   0  0  0  0  0  0  0  0  0  0  0  0
    0.0000    0.0000    0.0000 O   0  0  0  0  0  0  0  0  0  0  0  0
    0.0000    0.0000    0.0000 C   0  0  0  0  0  0  0  0  0  0  0  0
    0.0000    0.0000    0.0000 N   0  0  0  0  0  0  0  0  0  0  0  0
    0.0000    0.0000    0.0000 C   0  0  0  0  0  0  0  0  0  0  0  0
    0.0000    0.0000    0.0000 O   0  0  0  0  0  0  0  0  0  0  0  0
    0.0000    0.0000    0.0000 S   0  0  0  0  0  0  0  0  0  0  0  0
    0.0000    0.0000    0.0000 C   0  0  0  0  0  0  0  0  0  0  0  0
  1  2  1  0
  2  3  1  0
  3  4  1  0
  4  5  1  0
  5  6  1  0
  6  7  1  0
  7  8  1  0
  8  9  1  0
  9 10  1  0
 10 11  1  0
 11 12  1  0
 12 13  1  0
 13 14  1  0
 14 15  2  0
 15 16  1  0
 16 17  2  0
 17 18  1  0
 18 19  2  0
 19 20  1  0
 20 21  2  0
 21 22  1  0
 22 23  2  0
  2 24  1  0
 24 25  2  0
 25 26  1  0
 26 27  2  0
 27 28  1  0
 27 29  1  0
 29 30  1  0
 30 31  1  0
 31 32  2  0
 31 33  1  0
 33 34  1  0
 23 14  1  0
 23 18  1  0
 34 24  1  0
 34 29  2  0
M  END
>  <pIC50>  (242) 
6.7

>  <ChEMBL_ID>  (242) 
CHEMBL1807820

>  <document_journal>  (242) 
Bioorg. Med. Chem. Lett.

>  <bao_endpoint>  (242) 
BAO_0000190

>  <potential_duplicate>  (242) 
False

>  <uo_units>  (242) 
UO_0000065

>  <canonical_smiles>  (242) 
O[C@@H](CNCCCSCCOCCc1cccc2ccccc12)c3ccc(O)c4NC(=O)Sc34

>  <parent_molecule_chembl_id>  (242) 
CHEMBL1807820

>  <assay_type>  (242) 
B

>  <src_id>  (242) 
1

>  <ligand_efficiency>  (242) 
{u'le': u'0.27', u'bei': u'13.44', u'sei': u'4.74', u'lle': u'2.66'}

>  <standard_flag>  (242) 
True

>  <molecule_chembl_id>  (242) 
CHEMBL1807820

>  <target_organism>  (242) 
Homo sapiens

>  <standard_units>  (242) 
nM

>  <record_id>  (242) 
1444244

>  <document_chembl_id>  (242) 
CHEMBL1806408

>  <bao_format>  (242) 
BAO_0000357

>  <data_validity_description>  (242) 
None

>  <activity_id>  (242) 
6291245

>  <standard_type>  (242) 
IC50

>  <target_chembl_id>  (242) 
CHEMBL217

>  <data_validity_comment>  (242) 
None

>  <published_value>  (242) 
6.7

>  <document_year>  (242) 
2011

>  <target_pref_name>  (242) 
Dopamine D2 receptor

>  <assay_chembl_id>  (242) 
CHEMBL1810621

>  <standard_relation>  (242) 
=

>  <assay_description>  (242) 
Binding affinity to dopamine 2 receptor

>  <published_relation>  (242) 
=

>  <standard_value>  (242) 
199.53

>  <qudt_units>  (242) 
http://www.openphacts.org/units/Nanomolar

>  <target_tax_id>  (242) 
9606

>  <bao_label>  (242) 
single protein format

>  <published_units>  (242) 
None

>  <pchembl_value>  (242) 
6.7

>  <published_type>  (242) 
pIC50

>  <activity_comment>  (242) 
None

$$$$

     RDKit          

 31 33  0  0  0  0  0  0  0  0999 V2000
    0.0000    0.0000    0.0000 O   0  0  0  0  0  0  0  0  0  0  0  0
    0.0000    0.0000    0.0000 C   0  0  0  0  0  0  0  0  0  0  0  0
    0.0000    0.0000    0.0000 C   0  0  0  0  0  0  0  0  0  0  0  0
    0.0000    0.0000    0.0000 N   0  0  0  0  0  0  0  0  0  0  0  0
    0.0000    0.0000    0.0000 C   0  0  0  0  0  0  0  0  0  0  0  0
    0.0000    0.0000    0.0000 C   0  0  0  0  0  0  0  0  0  0  0  0
    0.0000    0.0000    0.0000 C   0  0  0  0  0  0  0  0  0  0  0  0
    0.0000    0.0000    0.0000 S   0  0  0  0  0  0  0  0  0  0  0  0
    0.0000    0.0000    0.0000 C   0  0  0  0  0  0  0  0  0  0  0  0
    0.0000    0.0000    0.0000 C   0  0  0  0  0  0  0  0  0  0  0  0
    0.0000    0.0000    0.0000 C   0  0  0  0  0  0  0  0  0  0  0  0
    0.0000    0.0000    0.0000 O   0  0  0  0  0  0  0  0  0  0  0  0
    0.0000    0.0000    0.0000 C   0  0  0  0  0  0  0  0  0  0  0  0
    0.0000    0.0000    0.0000 C   0  0  0  0  0  0  0  0  0  0  0  0
    0.0000    0.0000    0.0000 C   0  0  0  0  0  0  0  0  0  0  0  0
    0.0000    0.0000    0.0000 C   0  0  0  0  0  0  0  0  0  0  0  0
    0.0000    0.0000    0.0000 C   0  0  0  0  0  0  0  0  0  0  0  0
    0.0000    0.0000    0.0000 C   0  0  0  0  0  0  0  0  0  0  0  0
    0.0000    0.0000    0.0000 C   0  0  0  0  0  0  0  0  0  0  0  0
    0.0000    0.0000    0.0000 C   0  0  0  0  0  0  0  0  0  0  0  0
    0.0000    0.0000    0.0000 C   0  0  0  0  0  0  0  0  0  0  0  0
    0.0000    0.0000    0.0000 C   0  0  0  0  0  0  0  0  0  0  0  0
    0.0000    0.0000    0.0000 C   0  0  0  0  0  0  0  0  0  0  0  0
    0.0000    0.0000    0.0000 C   0  0  0  0  0  0  0  0  0  0  0  0
    0.0000    0.0000    0.0000 O   0  0  0  0  0  0  0  0  0  0  0  0
    0.0000    0.0000    0.0000 C   0  0  0  0  0  0  0  0  0  0  0  0
    0.0000    0.0000    0.0000 N   0  0  0  0  0  0  0  0  0  0  0  0
    0.0000    0.0000    0.0000 C   0  0  0  0  0  0  0  0  0  0  0  0
    0.0000    0.0000    0.0000 O   0  0  0  0  0  0  0  0  0  0  0  0
    0.0000    0.0000    0.0000 S   0  0  0  0  0  0  0  0  0  0  0  0
    0.0000    0.0000    0.0000 C   0  0  0  0  0  0  0  0  0  0  0  0
  1  2  1  0
  2  3  1  0
  3  4  1  0
  4  5  1  0
  5  6  1  0
  6  7  1  0
  7  8  1  0
  8  9  1  0
  9 10  1  0
 10 11  1  0
 11 12  1  0
 12 13  1  0
 13 14  1  0
 14 15  1  0
 15 16  2  0
 16 17  1  0
 17 18  2  0
 18 19  1  0
 19 20  2  0
  2 21  1  0
 21 22  2  0
 22 23  1  0
 23 24  2  0
 24 25  1  0
 24 26  1  0
 26 27  1  0
 27 28  1  0
 28 29  2  0
 28 30  1  0
 30 31  1  0
 20 15  1  0
 31 21  1  0
 31 26  2  0
M  END
>  <pIC50>  (243) 
6.2

>  <ChEMBL_ID>  (243) 
CHEMBL1807819

>  <document_journal>  (243) 
Bioorg. Med. Chem. Lett.

>  <bao_endpoint>  (243) 
BAO_0000190

>  <potential_duplicate>  (243) 
False

>  <uo_units>  (243) 
UO_0000065

>  <canonical_smiles>  (243) 
O[C@@H](CNCCCSCCCOCCc1ccccc1)c2ccc(O)c3NC(=O)Sc23

>  <parent_molecule_chembl_id>  (243) 
CHEMBL1807819

>  <assay_type>  (243) 
B

>  <src_id>  (243) 
1

>  <ligand_efficiency>  (243) 
{u'le': u'0.27', u'bei': u'13.4', u'sei': u'4.38', u'lle': u'3'}

>  <standard_flag>  (243) 
True

>  <molecule_chembl_id>  (243) 
CHEMBL1807819

>  <target_organism>  (243) 
Homo sapiens

>  <standard_units>  (243) 
nM

>  <record_id>  (243) 
1444243

>  <document_chembl_id>  (243) 
CHEMBL1806408

>  <bao_format>  (243) 
BAO_0000357

>  <data_validity_description>  (243) 
None

>  <activity_id>  (243) 
6291246

>  <standard_type>  (243) 
IC50

>  <target_chembl_id>  (243) 
CHEMBL217

>  <data_validity_comment>  (243) 
None

>  <published_value>  (243) 
6.2

>  <document_year>  (243) 
2011

>  <target_pref_name>  (243) 
Dopamine D2 receptor

>  <assay_chembl_id>  (243) 
CHEMBL1810621

>  <standard_relation>  (243) 
=

>  <assay_description>  (243) 
Binding affinity to dopamine 2 receptor

>  <published_relation>  (243) 
=

>  <standard_value>  (243) 
630.96

>  <qudt_units>  (243) 
http://www.openphacts.org/units/Nanomolar

>  <target_tax_id>  (243) 
9606

>  <bao_label>  (243) 
single protein format

>  <published_units>  (243) 
None

>  <pchembl_value>  (243) 
6.2

>  <published_type>  (243) 
pIC50

>  <activity_comment>  (243) 
None

$$$$

     RDKit          

 31 33  0  0  0  0  0  0  0  0999 V2000
    0.0000    0.0000    0.0000 O   0  0  0  0  0  0  0  0  0  0  0  0
    0.0000    0.0000    0.0000 C   0  0  0  0  0  0  0  0  0  0  0  0
    0.0000    0.0000    0.0000 N   0  0  0  0  0  0  0  0  0  0  0  0
    0.0000    0.0000    0.0000 S   0  0  0  0  0  0  0  0  0  0  0  0
    0.0000    0.0000    0.0000 C   0  0  0  0  0  0  0  0  0  0  0  0
    0.0000    0.0000    0.0000 C   0  0  0  0  0  0  0  0  0  0  0  0
    0.0000    0.0000    0.0000 C   0  0  0  0  0  0  0  0  0  0  0  0
    0.0000    0.0000    0.0000 C   0  0  0  0  0  0  0  0  0  0  0  0
    0.0000    0.0000    0.0000 C   0  0  0  0  0  0  0  0  0  0  0  0
    0.0000    0.0000    0.0000 C   0  0  0  0  0  0  0  0  0  0  0  0
    0.0000    0.0000    0.0000 C   0  0  0  0  0  0  0  0  0  0  0  0
    0.0000    0.0000    0.0000 C   0  0  0  0  0  0  0  0  0  0  0  0
    0.0000    0.0000    0.0000 O   0  0  0  0  0  0  0  0  0  0  0  0
    0.0000    0.0000    0.0000 N   0  0  0  0  0  0  0  0  0  0  0  0
    0.0000    0.0000    0.0000 C   0  0  0  0  0  0  0  0  0  0  0  0
    0.0000    0.0000    0.0000 C   0  0  0  0  0  0  0  0  0  0  0  0
    0.0000    0.0000    0.0000 S   0  0  0  0  0  0  0  0  0  0  0  0
    0.0000    0.0000    0.0000 O   0  0  0  0  0  0  0  0  0  0  0  0
    0.0000    0.0000    0.0000 O   0  0  0  0  0  0  0  0  0  0  0  0
    0.0000    0.0000    0.0000 C   0  0  0  0  0  0  0  0  0  0  0  0
    0.0000    0.0000    0.0000 C   0  0  0  0  0  0  0  0  0  0  0  0
    0.0000    0.0000    0.0000 C   0  0  0  0  0  0  0  0  0  0  0  0
    0.0000    0.0000    0.0000 O   0  0  0  0  0  0  0  0  0  0  0  0
    0.0000    0.0000    0.0000 C   0  0  0  0  0  0  0  0  0  0  0  0
    0.0000    0.0000    0.0000 C   0  0  0  0  0  0  0  0  0  0  0  0
    0.0000    0.0000    0.0000 C   0  0  0  0  0  0  0  0  0  0  0  0
    0.0000    0.0000    0.0000 C   0  0  0  0  0  0  0  0  0  0  0  0
    0.0000    0.0000    0.0000 C   0  0  0  0  0  0  0  0  0  0  0  0
    0.0000    0.0000    0.0000 C   0  0  0  0  0  0  0  0  0  0  0  0
    0.0000    0.0000    0.0000 C   0  0  0  0  0  0  0  0  0  0  0  0
    0.0000    0.0000    0.0000 C   0  0  0  0  0  0  0  0  0  0  0  0
  1  2  2  0
  2  3  1  0
  4  2  1  0
  5  4  1  0
  6  5  1  0
  7  5  2  0
  8  6  2  0
  6  9  1  0
  3  7  1  0
  7 10  1  0
 11  8  1  0
  9 12  1  0
 13 10  1  0
 10 11  2  0
 12 14  1  0
 14 15  1  0
 15 16  1  0
 16 17  1  0
 17 18  2  0
 17 19  2  0
 17 20  1  0
 20 21  1  0
 21 22  1  0
 22 23  1  0
 23 24  1  0
 24 25  1  0
 25 26  1  0
 26 27  2  0
 28 26  1  0
 27 29  1  0
 30 28  2  0
 29 31  2  0
 31 30  1  0
M  END
>  <pIC50>  (244) 
7.0

>  <ChEMBL_ID>  (244) 
CHEMBL82663

>  <document_journal>  (244) 
Bioorg. Med. Chem. Lett.

>  <bao_endpoint>  (244) 
BAO_0000190

>  <potential_duplicate>  (244) 
False

>  <uo_units>  (244) 
UO_0000065

>  <canonical_smiles>  (244) 
Oc1ccc(CCNCCS(=O)(=O)CCCOCCc2ccccc2)c3sc(O)nc13

>  <parent_molecule_chembl_id>  (244) 
CHEMBL82663

>  <assay_type>  (244) 
B

>  <src_id>  (244) 
1

>  <ligand_efficiency>  (244) 
{u'le': u'0.31', u'bei': u'15.07', u'sei': u'4.82', u'lle': u'3.74'}

>  <standard_flag>  (244) 
True

>  <molecule_chembl_id>  (244) 
CHEMBL82663

>  <target_organism>  (244) 
Homo sapiens

>  <standard_units>  (244) 
nM

>  <record_id>  (244) 
1444240

>  <document_chembl_id>  (244) 
CHEMBL1806408

>  <bao_format>  (244) 
BAO_0000357

>  <data_validity_description>  (244) 
None

>  <activity_id>  (244) 
6291249

>  <standard_type>  (244) 
IC50

>  <target_chembl_id>  (244) 
CHEMBL217

>  <data_validity_comment>  (244) 
None

>  <published_value>  (244) 
7

>  <document_year>  (244) 
2011

>  <target_pref_name>  (244) 
Dopamine D2 receptor

>  <assay_chembl_id>  (244) 
CHEMBL1810621

>  <standard_relation>  (244) 
=

>  <assay_description>  (244) 
Binding affinity to dopamine 2 receptor

>  <published_relation>  (244) 
=

>  <standard_value>  (244) 
100

>  <qudt_units>  (244) 
http://www.openphacts.org/units/Nanomolar

>  <target_tax_id>  (244) 
9606

>  <bao_label>  (244) 
single protein format

>  <published_units>  (244) 
None

>  <pchembl_value>  (244) 
7

>  <published_type>  (244) 
pIC50

>  <activity_comment>  (244) 
None

$$$$

     RDKit          

 32 36  0  0  0  0  0  0  0  0999 V2000
    0.0000    0.0000    0.0000 N   0  0  0  0  0  0  0  0  0  0  0  0
    0.0000    0.0000    0.0000 C   0  0  0  0  0  0  0  0  0  0  0  0
    0.0000    0.0000    0.0000 O   0  0  0  0  0  0  0  0  0  0  0  0
    0.0000    0.0000    0.0000 C   0  0  0  0  0  0  0  0  0  0  0  0
    0.0000    0.0000    0.0000 C   0  0  0  0  0  0  0  0  0  0  0  0
    0.0000    0.0000    0.0000 C   0  0  0  0  0  0  0  0  0  0  0  0
    0.0000    0.0000    0.0000 C   0  0  0  0  0  0  0  0  0  0  0  0
    0.0000    0.0000    0.0000 N   0  0  0  0  0  0  0  0  0  0  0  0
    0.0000    0.0000    0.0000 C   0  0  0  0  0  0  0  0  0  0  0  0
    0.0000    0.0000    0.0000 C   0  0  0  0  0  0  0  0  0  0  0  0
    0.0000    0.0000    0.0000 C   0  0  0  0  0  0  0  0  0  0  0  0
    0.0000    0.0000    0.0000 C   0  0  0  0  0  0  0  0  0  0  0  0
    0.0000    0.0000    0.0000 C   0  0  0  0  0  0  0  0  0  0  0  0
    0.0000    0.0000    0.0000 C   0  0  0  0  0  0  0  0  0  0  0  0
    0.0000    0.0000    0.0000 O   0  0  0  0  0  0  0  0  0  0  0  0
    0.0000    0.0000    0.0000 C   0  0  0  0  0  0  0  0  0  0  0  0
    0.0000    0.0000    0.0000 C   0  0  0  0  0  0  0  0  0  0  0  0
    0.0000    0.0000    0.0000 C   0  0  0  0  0  0  0  0  0  0  0  0
    0.0000    0.0000    0.0000 C   0  0  0  0  0  0  0  0  0  0  0  0
    0.0000    0.0000    0.0000 C   0  0  0  0  0  0  0  0  0  0  0  0
    0.0000    0.0000    0.0000 C   0  0  0  0  0  0  0  0  0  0  0  0
    0.0000    0.0000    0.0000 C   0  0  0  0  0  0  0  0  0  0  0  0
    0.0000    0.0000    0.0000 C   0  0  0  0  0  0  0  0  0  0  0  0
    0.0000    0.0000    0.0000 C   0  0  0  0  0  0  0  0  0  0  0  0
    0.0000    0.0000    0.0000 C   0  0  0  0  0  0  0  0  0  0  0  0
    0.0000    0.0000    0.0000 C   0  0  0  0  0  0  0  0  0  0  0  0
    0.0000    0.0000    0.0000 C   0  0  0  0  0  0  0  0  0  0  0  0
    0.0000    0.0000    0.0000 C   0  0  0  0  0  0  0  0  0  0  0  0
    0.0000    0.0000    0.0000 C   0  0  0  0  0  0  0  0  0  0  0  0
    0.0000    0.0000    0.0000 C   0  0  0  0  0  0  0  0  0  0  0  0
    0.0000    0.0000    0.0000 C   0  0  0  0  0  0  0  0  0  0  0  0
    0.0000    0.0000    0.0000 C   0  0  0  0  0  0  0  0  0  0  0  0
  1  2  1  0
  2  3  2  0
  2  4  1  0
  4  5  1  0
  5  6  1  0
  6  7  1  0
  7  8  1  0
  8  9  1  0
  9 10  1  0
 10 11  1  0
 11 12  2  0
 12 13  1  0
 13 14  2  0
 14 15  1  0
 15 16  1  0
 16 17  1  0
 17 18  1  0
 18 19  2  0
  8 20  1  0
  4 21  1  0
 21 22  2  0
 22 23  1  0
 23 24  2  0
 24 25  1  0
 25 26  2  0
  4 27  1  0
 27 28  2  0
 28 29  1  0
 29 30  2  0
 30 31  1  0
 31 32  2  0
 20  5  1  0
 19 11  1  0
 18 14  1  0
 26 21  1  0
 32 27  1  0
M  END
>  <pIC50>  (245) 
4.6

>  <ChEMBL_ID>  (245) 
CHEMBL1346

>  <document_journal>  (245) 
Bioorg. Med. Chem. Lett.

>  <bao_endpoint>  (245) 
BAO_0000190

>  <potential_duplicate>  (245) 
False

>  <uo_units>  (245) 
UO_0000065

>  <canonical_smiles>  (245) 
NC(=O)C([C@@H]1CCN(CCc2ccc3OCCc3c2)C1)(c4ccccc4)c5ccccc5

>  <parent_molecule_chembl_id>  (245) 
CHEMBL1346

>  <assay_type>  (245) 
B

>  <src_id>  (245) 
1

>  <ligand_efficiency>  (245) 
{u'le': u'0.2', u'bei': u'10.78', u'sei': u'8.28', u'lle': u'0.04'}

>  <standard_flag>  (245) 
True

>  <molecule_chembl_id>  (245) 
CHEMBL1346

>  <target_organism>  (245) 
Homo sapiens

>  <standard_units>  (245) 
nM

>  <record_id>  (245) 
1443854

>  <document_chembl_id>  (245) 
CHEMBL1806408

>  <bao_format>  (245) 
BAO_0000357

>  <data_validity_description>  (245) 
None

>  <activity_id>  (245) 
6291250

>  <standard_type>  (245) 
IC50

>  <target_chembl_id>  (245) 
CHEMBL217

>  <data_validity_comment>  (245) 
None

>  <published_value>  (245) 
4.6

>  <document_year>  (245) 
2011

>  <target_pref_name>  (245) 
Dopamine D2 receptor

>  <assay_chembl_id>  (245) 
CHEMBL1810621

>  <standard_relation>  (245) 
=

>  <assay_description>  (245) 
Binding affinity to dopamine 2 receptor

>  <published_relation>  (245) 
=

>  <standard_value>  (245) 
25118.86

>  <qudt_units>  (245) 
http://www.openphacts.org/units/Nanomolar

>  <target_tax_id>  (245) 
9606

>  <bao_label>  (245) 
single protein format

>  <published_units>  (245) 
None

>  <pchembl_value>  (245) 
4.6

>  <published_type>  (245) 
pIC50

>  <activity_comment>  (245) 
None

$$$$

     RDKit          

 34 36  0  0  0  0  0  0  0  0999 V2000
    0.0000    0.0000    0.0000 O   0  0  0  0  0  0  0  0  0  0  0  0
    0.0000    0.0000    0.0000 C   0  0  0  0  0  0  0  0  0  0  0  0
    0.0000    0.0000    0.0000 C   0  0  0  0  0  0  0  0  0  0  0  0
    0.0000    0.0000    0.0000 N   0  0  0  0  0  0  0  0  0  0  0  0
    0.0000    0.0000    0.0000 C   0  0  0  0  0  0  0  0  0  0  0  0
    0.0000    0.0000    0.0000 C   0  0  0  0  0  0  0  0  0  0  0  0
    0.0000    0.0000    0.0000 S   0  0  0  0  0  0  0  0  0  0  0  0
    0.0000    0.0000    0.0000 C   0  0  0  0  0  0  0  0  0  0  0  0
    0.0000    0.0000    0.0000 C   0  0  0  0  0  0  0  0  0  0  0  0
    0.0000    0.0000    0.0000 C   0  0  0  0  0  0  0  0  0  0  0  0
    0.0000    0.0000    0.0000 N   0  0  0  0  0  0  0  0  0  0  0  0
    0.0000    0.0000    0.0000 C   0  0  0  0  0  0  0  0  0  0  0  0
    0.0000    0.0000    0.0000 C   0  0  0  0  0  0  0  0  0  0  0  0
    0.0000    0.0000    0.0000 C   0  0  0  0  0  0  0  0  0  0  0  0
    0.0000    0.0000    0.0000 C   0  0  0  0  0  0  0  0  0  0  0  0
    0.0000    0.0000    0.0000 C   0  0  0  0  0  0  0  0  0  0  0  0
    0.0000    0.0000    0.0000 C   0  0  0  0  0  0  0  0  0  0  0  0
    0.0000    0.0000    0.0000 C   0  0  0  0  0  0  0  0  0  0  0  0
    0.0000    0.0000    0.0000 C   0  0  0  0  0  0  0  0  0  0  0  0
    0.0000    0.0000    0.0000 C   0  0  0  0  0  0  0  0  0  0  0  0
    0.0000    0.0000    0.0000 F   0  0  0  0  0  0  0  0  0  0  0  0
    0.0000    0.0000    0.0000 F   0  0  0  0  0  0  0  0  0  0  0  0
    0.0000    0.0000    0.0000 F   0  0  0  0  0  0  0  0  0  0  0  0
    0.0000    0.0000    0.0000 C   0  0  0  0  0  0  0  0  0  0  0  0
    0.0000    0.0000    0.0000 C   0  0  0  0  0  0  0  0  0  0  0  0
    0.0000    0.0000    0.0000 C   0  0  0  0  0  0  0  0  0  0  0  0
    0.0000    0.0000    0.0000 C   0  0  0  0  0  0  0  0  0  0  0  0
    0.0000    0.0000    0.0000 O   0  0  0  0  0  0  0  0  0  0  0  0
    0.0000    0.0000    0.0000 C   0  0  0  0  0  0  0  0  0  0  0  0
    0.0000    0.0000    0.0000 N   0  0  0  0  0  0  0  0  0  0  0  0
    0.0000    0.0000    0.0000 C   0  0  0  0  0  0  0  0  0  0  0  0
    0.0000    0.0000    0.0000 O   0  0  0  0  0  0  0  0  0  0  0  0
    0.0000    0.0000    0.0000 S   0  0  0  0  0  0  0  0  0  0  0  0
    0.0000    0.0000    0.0000 C   0  0  0  0  0  0  0  0  0  0  0  0
  1  2  1  0
  2  3  1  0
  3  4  1  0
  4  5  1  0
  5  6  1  0
  6  7  1  0
  7  8  1  0
  8  9  1  0
  9 10  1  0
 10 11  1  0
 11 12  1  0
 12 13  1  0
 13 14  1  0
 14 15  2  0
 15 16  1  0
 16 17  2  0
 17 18  1  0
 18 19  2  0
 18 20  1  0
 20 21  1  0
 20 22  1  0
 20 23  1  0
  2 24  1  0
 24 25  2  0
 25 26  1  0
 26 27  2  0
 27 28  1  0
 27 29  1  0
 29 30  1  0
 30 31  1  0
 31 32  2  0
 31 33  1  0
 33 34  1  0
 19 14  1  0
 34 24  1  0
 34 29  2  0
M  END
>  <pIC50>  (246) 
6.3

>  <ChEMBL_ID>  (246) 
CHEMBL1807826

>  <document_journal>  (246) 
Bioorg. Med. Chem. Lett.

>  <bao_endpoint>  (246) 
BAO_0000190

>  <potential_duplicate>  (246) 
False

>  <uo_units>  (246) 
UO_0000065

>  <canonical_smiles>  (246) 
O[C@@H](CNCCSCCCNCCc1cccc(c1)C(F)(F)F)c2ccc(O)c3NC(=O)Sc23

>  <parent_molecule_chembl_id>  (246) 
CHEMBL1807826

>  <assay_type>  (246) 
B

>  <src_id>  (246) 
1

>  <ligand_efficiency>  (246) 
{u'le': u'0.25', u'bei': u'12.22', u'sei': u'4.37', u'lle': u'2.49'}

>  <standard_flag>  (246) 
True

>  <molecule_chembl_id>  (246) 
CHEMBL1807826

>  <target_organism>  (246) 
Homo sapiens

>  <standard_units>  (246) 
nM

>  <record_id>  (246) 
1444250

>  <document_chembl_id>  (246) 
CHEMBL1806408

>  <bao_format>  (246) 
BAO_0000357

>  <data_validity_description>  (246) 
None

>  <activity_id>  (246) 
6292044

>  <standard_type>  (246) 
IC50

>  <target_chembl_id>  (246) 
CHEMBL217

>  <data_validity_comment>  (246) 
None

>  <published_value>  (246) 
6.3

>  <document_year>  (246) 
2011

>  <target_pref_name>  (246) 
Dopamine D2 receptor

>  <assay_chembl_id>  (246) 
CHEMBL1810621

>  <standard_relation>  (246) 
=

>  <assay_description>  (246) 
Binding affinity to dopamine 2 receptor

>  <published_relation>  (246) 
=

>  <standard_value>  (246) 
501.19

>  <qudt_units>  (246) 
http://www.openphacts.org/units/Nanomolar

>  <target_tax_id>  (246) 
9606

>  <bao_label>  (246) 
single protein format

>  <published_units>  (246) 
None

>  <pchembl_value>  (246) 
6.3

>  <published_type>  (246) 
pIC50

>  <activity_comment>  (246) 
None

$$$$

     RDKit          

 31 33  0  0  0  0  0  0  0  0999 V2000
    0.0000    0.0000    0.0000 O   0  0  0  0  0  0  0  0  0  0  0  0
    0.0000    0.0000    0.0000 C   0  0  0  0  0  0  0  0  0  0  0  0
    0.0000    0.0000    0.0000 C   0  0  0  0  0  0  0  0  0  0  0  0
    0.0000    0.0000    0.0000 N   0  0  0  0  0  0  0  0  0  0  0  0
    0.0000    0.0000    0.0000 C   0  0  0  0  0  0  0  0  0  0  0  0
    0.0000    0.0000    0.0000 C   0  0  0  0  0  0  0  0  0  0  0  0
    0.0000    0.0000    0.0000 S   0  0  0  0  0  0  0  0  0  0  0  0
    0.0000    0.0000    0.0000 C   0  0  0  0  0  0  0  0  0  0  0  0
    0.0000    0.0000    0.0000 C   0  0  0  0  0  0  0  0  0  0  0  0
    0.0000    0.0000    0.0000 C   0  0  0  0  0  0  0  0  0  0  0  0
    0.0000    0.0000    0.0000 N   0  0  0  0  0  0  0  0  0  0  0  0
    0.0000    0.0000    0.0000 C   0  0  0  0  0  0  0  0  0  0  0  0
    0.0000    0.0000    0.0000 C   0  0  0  0  0  0  0  0  0  0  0  0
    0.0000    0.0000    0.0000 C   0  0  0  0  0  0  0  0  0  0  0  0
    0.0000    0.0000    0.0000 C   0  0  0  0  0  0  0  0  0  0  0  0
    0.0000    0.0000    0.0000 C   0  0  0  0  0  0  0  0  0  0  0  0
    0.0000    0.0000    0.0000 C   0  0  0  0  0  0  0  0  0  0  0  0
    0.0000    0.0000    0.0000 C   0  0  0  0  0  0  0  0  0  0  0  0
    0.0000    0.0000    0.0000 C   0  0  0  0  0  0  0  0  0  0  0  0
    0.0000    0.0000    0.0000 Cl  0  0  0  0  0  0  0  0  0  0  0  0
    0.0000    0.0000    0.0000 C   0  0  0  0  0  0  0  0  0  0  0  0
    0.0000    0.0000    0.0000 C   0  0  0  0  0  0  0  0  0  0  0  0
    0.0000    0.0000    0.0000 C   0  0  0  0  0  0  0  0  0  0  0  0
    0.0000    0.0000    0.0000 C   0  0  0  0  0  0  0  0  0  0  0  0
    0.0000    0.0000    0.0000 O   0  0  0  0  0  0  0  0  0  0  0  0
    0.0000    0.0000    0.0000 C   0  0  0  0  0  0  0  0  0  0  0  0
    0.0000    0.0000    0.0000 N   0  0  0  0  0  0  0  0  0  0  0  0
    0.0000    0.0000    0.0000 C   0  0  0  0  0  0  0  0  0  0  0  0
    0.0000    0.0000    0.0000 O   0  0  0  0  0  0  0  0  0  0  0  0
    0.0000    0.0000    0.0000 S   0  0  0  0  0  0  0  0  0  0  0  0
    0.0000    0.0000    0.0000 C   0  0  0  0  0  0  0  0  0  0  0  0
  1  2  1  0
  2  3  1  0
  3  4  1  0
  4  5  1  0
  5  6  1  0
  6  7  1  0
  7  8  1  0
  8  9  1  0
  9 10  1  0
 10 11  1  0
 11 12  1  0
 12 13  1  0
 13 14  1  0
 14 15  2  0
 15 16  1  0
 16 17  2  0
 17 18  1  0
 18 19  2  0
 19 20  1  0
  2 21  1  0
 21 22  2  0
 22 23  1  0
 23 24  2  0
 24 25  1  0
 24 26  1  0
 26 27  1  0
 27 28  1  0
 28 29  2  0
 28 30  1  0
 30 31  1  0
 19 14  1  0
 31 21  1  0
 31 26  2  0
M  END
>  <pIC50>  (247) 
5.8

>  <ChEMBL_ID>  (247) 
CHEMBL1807828

>  <document_journal>  (247) 
Bioorg. Med. Chem. Lett.

>  <bao_endpoint>  (247) 
BAO_0000190

>  <potential_duplicate>  (247) 
False

>  <uo_units>  (247) 
UO_0000065

>  <canonical_smiles>  (247) 
O[C@@H](CNCCSCCCNCCc1ccccc1Cl)c2ccc(O)c3NC(=O)Sc23

>  <parent_molecule_chembl_id>  (247) 
CHEMBL1807828

>  <assay_type>  (247) 
B

>  <src_id>  (247) 
1

>  <ligand_efficiency>  (247) 
{u'le': u'0.26', u'bei': u'12.03', u'sei': u'4.02', u'lle': u'2.27'}

>  <standard_flag>  (247) 
True

>  <molecule_chembl_id>  (247) 
CHEMBL1807828

>  <target_organism>  (247) 
Homo sapiens

>  <standard_units>  (247) 
nM

>  <record_id>  (247) 
1444252

>  <document_chembl_id>  (247) 
CHEMBL1806408

>  <bao_format>  (247) 
BAO_0000357

>  <data_validity_description>  (247) 
None

>  <activity_id>  (247) 
6292046

>  <standard_type>  (247) 
IC50

>  <target_chembl_id>  (247) 
CHEMBL217

>  <data_validity_comment>  (247) 
None

>  <published_value>  (247) 
5.8

>  <document_year>  (247) 
2011

>  <target_pref_name>  (247) 
Dopamine D2 receptor

>  <assay_chembl_id>  (247) 
CHEMBL1810621

>  <standard_relation>  (247) 
=

>  <assay_description>  (247) 
Binding affinity to dopamine 2 receptor

>  <published_relation>  (247) 
=

>  <standard_value>  (247) 
1584.89

>  <qudt_units>  (247) 
http://www.openphacts.org/units/Nanomolar

>  <target_tax_id>  (247) 
9606

>  <bao_label>  (247) 
single protein format

>  <published_units>  (247) 
None

>  <pchembl_value>  (247) 
5.8

>  <published_type>  (247) 
pIC50

>  <activity_comment>  (247) 
None

$$$$

     RDKit          

 32 34  0  0  0  0  0  0  0  0999 V2000
    0.0000    0.0000    0.0000 O   0  0  0  0  0  0  0  0  0  0  0  0
    0.0000    0.0000    0.0000 C   0  0  0  0  0  0  0  0  0  0  0  0
    0.0000    0.0000    0.0000 C   0  0  0  0  0  0  0  0  0  0  0  0
    0.0000    0.0000    0.0000 N   0  0  0  0  0  0  0  0  0  0  0  0
    0.0000    0.0000    0.0000 C   0  0  0  0  0  0  0  0  0  0  0  0
    0.0000    0.0000    0.0000 C   0  0  0  0  0  0  0  0  0  0  0  0
    0.0000    0.0000    0.0000 S   0  0  0  0  0  0  0  0  0  0  0  0
    0.0000    0.0000    0.0000 C   0  0  0  0  0  0  0  0  0  0  0  0
    0.0000    0.0000    0.0000 C   0  0  0  0  0  0  0  0  0  0  0  0
    0.0000    0.0000    0.0000 C   0  0  0  0  0  0  0  0  0  0  0  0
    0.0000    0.0000    0.0000 N   0  0  0  0  0  0  0  0  0  0  0  0
    0.0000    0.0000    0.0000 C   0  0  0  0  0  0  0  0  0  0  0  0
    0.0000    0.0000    0.0000 C   0  0  0  0  0  0  0  0  0  0  0  0
    0.0000    0.0000    0.0000 C   0  0  0  0  0  0  0  0  0  0  0  0
    0.0000    0.0000    0.0000 C   0  0  0  0  0  0  0  0  0  0  0  0
    0.0000    0.0000    0.0000 C   0  0  0  0  0  0  0  0  0  0  0  0
    0.0000    0.0000    0.0000 C   0  0  0  0  0  0  0  0  0  0  0  0
    0.0000    0.0000    0.0000 C   0  0  0  0  0  0  0  0  0  0  0  0
    0.0000    0.0000    0.0000 Cl  0  0  0  0  0  0  0  0  0  0  0  0
    0.0000    0.0000    0.0000 C   0  0  0  0  0  0  0  0  0  0  0  0
    0.0000    0.0000    0.0000 Cl  0  0  0  0  0  0  0  0  0  0  0  0
    0.0000    0.0000    0.0000 C   0  0  0  0  0  0  0  0  0  0  0  0
    0.0000    0.0000    0.0000 C   0  0  0  0  0  0  0  0  0  0  0  0
    0.0000    0.0000    0.0000 C   0  0  0  0  0  0  0  0  0  0  0  0
    0.0000    0.0000    0.0000 C   0  0  0  0  0  0  0  0  0  0  0  0
    0.0000    0.0000    0.0000 O   0  0  0  0  0  0  0  0  0  0  0  0
    0.0000    0.0000    0.0000 C   0  0  0  0  0  0  0  0  0  0  0  0
    0.0000    0.0000    0.0000 N   0  0  0  0  0  0  0  0  0  0  0  0
    0.0000    0.0000    0.0000 C   0  0  0  0  0  0  0  0  0  0  0  0
    0.0000    0.0000    0.0000 O   0  0  0  0  0  0  0  0  0  0  0  0
    0.0000    0.0000    0.0000 S   0  0  0  0  0  0  0  0  0  0  0  0
    0.0000    0.0000    0.0000 C   0  0  0  0  0  0  0  0  0  0  0  0
  1  2  1  0
  2  3  1  0
  3  4  1  0
  4  5  1  0
  5  6  1  0
  6  7  1  0
  7  8  1  0
  8  9  1  0
  9 10  1  0
 10 11  1  0
 11 12  1  0
 12 13  1  0
 13 14  1  0
 14 15  2  0
 15 16  1  0
 16 17  2  0
 17 18  1  0
 18 19  1  0
 18 20  2  0
 20 21  1  0
  2 22  1  0
 22 23  2  0
 23 24  1  0
 24 25  2  0
 25 26  1  0
 25 27  1  0
 27 28  1  0
 28 29  1  0
 29 30  2  0
 29 31  1  0
 31 32  1  0
 20 14  1  0
 32 22  1  0
 32 27  2  0
M  END
>  <pIC50>  (248) 
6.4

>  <ChEMBL_ID>  (248) 
CHEMBL1807829

>  <document_journal>  (248) 
Bioorg. Med. Chem. Lett.

>  <bao_endpoint>  (248) 
BAO_0000190

>  <potential_duplicate>  (248) 
False

>  <uo_units>  (248) 
UO_0000065

>  <canonical_smiles>  (248) 
O[C@@H](CNCCSCCCNCCc1cccc(Cl)c1Cl)c2ccc(O)c3NC(=O)Sc23

>  <parent_molecule_chembl_id>  (248) 
CHEMBL1807829

>  <assay_type>  (248) 
B

>  <src_id>  (248) 
1

>  <ligand_efficiency>  (248) 
{u'le': u'0.27', u'bei': u'12.39', u'sei': u'4.44', u'lle': u'2.2'}

>  <standard_flag>  (248) 
True

>  <molecule_chembl_id>  (248) 
CHEMBL1807829

>  <target_organism>  (248) 
Homo sapiens

>  <standard_units>  (248) 
nM

>  <record_id>  (248) 
1444253

>  <document_chembl_id>  (248) 
CHEMBL1806408

>  <bao_format>  (248) 
BAO_0000357

>  <data_validity_description>  (248) 
None

>  <activity_id>  (248) 
6292047

>  <standard_type>  (248) 
IC50

>  <target_chembl_id>  (248) 
CHEMBL217

>  <data_validity_comment>  (248) 
None

>  <published_value>  (248) 
6.4

>  <document_year>  (248) 
2011

>  <target_pref_name>  (248) 
Dopamine D2 receptor

>  <assay_chembl_id>  (248) 
CHEMBL1810621

>  <standard_relation>  (248) 
=

>  <assay_description>  (248) 
Binding affinity to dopamine 2 receptor

>  <published_relation>  (248) 
=

>  <standard_value>  (248) 
398.11

>  <qudt_units>  (248) 
http://www.openphacts.org/units/Nanomolar

>  <target_tax_id>  (248) 
9606

>  <bao_label>  (248) 
single protein format

>  <published_units>  (248) 
None

>  <pchembl_value>  (248) 
6.4

>  <published_type>  (248) 
pIC50

>  <activity_comment>  (248) 
None

$$$$

     RDKit          

 33 35  0  0  0  0  0  0  0  0999 V2000
    0.0000    0.0000    0.0000 O   0  0  0  0  0  0  0  0  0  0  0  0
    0.0000    0.0000    0.0000 C   0  0  0  0  0  0  0  0  0  0  0  0
    0.0000    0.0000    0.0000 C   0  0  0  0  0  0  0  0  0  0  0  0
    0.0000    0.0000    0.0000 N   0  0  0  0  0  0  0  0  0  0  0  0
    0.0000    0.0000    0.0000 C   0  0  0  0  0  0  0  0  0  0  0  0
    0.0000    0.0000    0.0000 C   0  0  0  0  0  0  0  0  0  0  0  0
    0.0000    0.0000    0.0000 S   0  0  0  0  0  0  0  0  0  0  0  0
    0.0000    0.0000    0.0000 O   0  0  0  0  0  0  0  0  0  0  0  0
    0.0000    0.0000    0.0000 O   0  0  0  0  0  0  0  0  0  0  0  0
    0.0000    0.0000    0.0000 C   0  0  0  0  0  0  0  0  0  0  0  0
    0.0000    0.0000    0.0000 C   0  0  0  0  0  0  0  0  0  0  0  0
    0.0000    0.0000    0.0000 C   0  0  0  0  0  0  0  0  0  0  0  0
    0.0000    0.0000    0.0000 N   0  0  0  0  0  0  0  0  0  0  0  0
    0.0000    0.0000    0.0000 C   0  0  0  0  0  0  0  0  0  0  0  0
    0.0000    0.0000    0.0000 C   0  0  0  0  0  0  0  0  0  0  0  0
    0.0000    0.0000    0.0000 C   0  0  0  0  0  0  0  0  0  0  0  0
    0.0000    0.0000    0.0000 C   0  0  0  0  0  0  0  0  0  0  0  0
    0.0000    0.0000    0.0000 C   0  0  0  0  0  0  0  0  0  0  0  0
    0.0000    0.0000    0.0000 C   0  0  0  0  0  0  0  0  0  0  0  0
    0.0000    0.0000    0.0000 C   0  0  0  0  0  0  0  0  0  0  0  0
    0.0000    0.0000    0.0000 Cl  0  0  0  0  0  0  0  0  0  0  0  0
    0.0000    0.0000    0.0000 C   0  0  0  0  0  0  0  0  0  0  0  0
    0.0000    0.0000    0.0000 C   0  0  0  0  0  0  0  0  0  0  0  0
    0.0000    0.0000    0.0000 C   0  0  0  0  0  0  0  0  0  0  0  0
    0.0000    0.0000    0.0000 C   0  0  0  0  0  0  0  0  0  0  0  0
    0.0000    0.0000    0.0000 C   0  0  0  0  0  0  0  0  0  0  0  0
    0.0000    0.0000    0.0000 O   0  0  0  0  0  0  0  0  0  0  0  0
    0.0000    0.0000    0.0000 C   0  0  0  0  0  0  0  0  0  0  0  0
    0.0000    0.0000    0.0000 N   0  0  0  0  0  0  0  0  0  0  0  0
    0.0000    0.0000    0.0000 C   0  0  0  0  0  0  0  0  0  0  0  0
    0.0000    0.0000    0.0000 O   0  0  0  0  0  0  0  0  0  0  0  0
    0.0000    0.0000    0.0000 S   0  0  0  0  0  0  0  0  0  0  0  0
    0.0000    0.0000    0.0000 C   0  0  0  0  0  0  0  0  0  0  0  0
  1  2  1  0
  2  3  1  0
  3  4  1  0
  4  5  1  0
  5  6  1  0
  6  7  1  0
  7  8  2  0
  7  9  2  0
  7 10  1  0
 10 11  1  0
 11 12  1  0
 12 13  1  0
 13 14  1  0
 14 15  1  0
 15 16  1  0
 16 17  2  0
 17 18  1  0
 18 19  2  0
 19 20  1  0
 20 21  1  0
 20 22  2  0
  2 23  1  0
 23 24  2  0
 24 25  1  0
 25 26  2  0
 26 27  1  0
 26 28  1  0
 28 29  1  0
 29 30  1  0
 30 31  2  0
 30 32  1  0
 32 33  1  0
 22 16  1  0
 33 23  1  0
 33 28  2  0
M  END
>  <pIC50>  (249) 
6.1

>  <ChEMBL_ID>  (249) 
CHEMBL1807831

>  <document_journal>  (249) 
Bioorg. Med. Chem. Lett.

>  <bao_endpoint>  (249) 
BAO_0000190

>  <potential_duplicate>  (249) 
False

>  <uo_units>  (249) 
UO_0000065

>  <canonical_smiles>  (249) 
O[C@@H](CNCCS(=O)(=O)CCCNCCc1cccc(Cl)c1)c2ccc(O)c3NC(=O)Sc23

>  <parent_molecule_chembl_id>  (249) 
CHEMBL1807831

>  <assay_type>  (249) 
B

>  <src_id>  (249) 
1

>  <ligand_efficiency>  (249) 
{u'le': u'0.25', u'bei': u'11.87', u'sei': u'3.78', u'lle': u'3.58'}

>  <standard_flag>  (249) 
True

>  <molecule_chembl_id>  (249) 
CHEMBL1807831

>  <target_organism>  (249) 
Homo sapiens

>  <standard_units>  (249) 
nM

>  <record_id>  (249) 
1444255

>  <document_chembl_id>  (249) 
CHEMBL1806408

>  <bao_format>  (249) 
BAO_0000357

>  <data_validity_description>  (249) 
None

>  <activity_id>  (249) 
6292049

>  <standard_type>  (249) 
IC50

>  <target_chembl_id>  (249) 
CHEMBL217

>  <data_validity_comment>  (249) 
None

>  <published_value>  (249) 
6.1

>  <document_year>  (249) 
2011

>  <target_pref_name>  (249) 
Dopamine D2 receptor

>  <assay_chembl_id>  (249) 
CHEMBL1810621

>  <standard_relation>  (249) 
=

>  <assay_description>  (249) 
Binding affinity to dopamine 2 receptor

>  <published_relation>  (249) 
=

>  <standard_value>  (249) 
794.33

>  <qudt_units>  (249) 
http://www.openphacts.org/units/Nanomolar

>  <target_tax_id>  (249) 
9606

>  <bao_label>  (249) 
single protein format

>  <published_units>  (249) 
None

>  <pchembl_value>  (249) 
6.1

>  <published_type>  (249) 
pIC50

>  <activity_comment>  (249) 
None

$$$$

     RDKit          

 31 33  0  0  0  0  0  0  0  0999 V2000
    0.0000    0.0000    0.0000 O   0  0  0  0  0  0  0  0  0  0  0  0
    0.0000    0.0000    0.0000 C   0  0  0  0  0  0  0  0  0  0  0  0
    0.0000    0.0000    0.0000 C   0  0  0  0  0  0  0  0  0  0  0  0
    0.0000    0.0000    0.0000 N   0  0  0  0  0  0  0  0  0  0  0  0
    0.0000    0.0000    0.0000 C   0  0  0  0  0  0  0  0  0  0  0  0
    0.0000    0.0000    0.0000 C   0  0  0  0  0  0  0  0  0  0  0  0
    0.0000    0.0000    0.0000 O   0  0  0  0  0  0  0  0  0  0  0  0
    0.0000    0.0000    0.0000 C   0  0  0  0  0  0  0  0  0  0  0  0
    0.0000    0.0000    0.0000 C   0  0  0  0  0  0  0  0  0  0  0  0
    0.0000    0.0000    0.0000 C   0  0  0  0  0  0  0  0  0  0  0  0
    0.0000    0.0000    0.0000 N   0  0  0  0  0  0  0  0  0  0  0  0
    0.0000    0.0000    0.0000 C   0  0  0  0  0  0  0  0  0  0  0  0
    0.0000    0.0000    0.0000 C   0  0  0  0  0  0  0  0  0  0  0  0
    0.0000    0.0000    0.0000 C   0  0  0  0  0  0  0  0  0  0  0  0
    0.0000    0.0000    0.0000 C   0  0  0  0  0  0  0  0  0  0  0  0
    0.0000    0.0000    0.0000 C   0  0  0  0  0  0  0  0  0  0  0  0
    0.0000    0.0000    0.0000 C   0  0  0  0  0  0  0  0  0  0  0  0
    0.0000    0.0000    0.0000 C   0  0  0  0  0  0  0  0  0  0  0  0
    0.0000    0.0000    0.0000 Cl  0  0  0  0  0  0  0  0  0  0  0  0
    0.0000    0.0000    0.0000 C   0  0  0  0  0  0  0  0  0  0  0  0
    0.0000    0.0000    0.0000 C   0  0  0  0  0  0  0  0  0  0  0  0
    0.0000    0.0000    0.0000 C   0  0  0  0  0  0  0  0  0  0  0  0
    0.0000    0.0000    0.0000 C   0  0  0  0  0  0  0  0  0  0  0  0
    0.0000    0.0000    0.0000 C   0  0  0  0  0  0  0  0  0  0  0  0
    0.0000    0.0000    0.0000 O   0  0  0  0  0  0  0  0  0  0  0  0
    0.0000    0.0000    0.0000 C   0  0  0  0  0  0  0  0  0  0  0  0
    0.0000    0.0000    0.0000 N   0  0  0  0  0  0  0  0  0  0  0  0
    0.0000    0.0000    0.0000 C   0  0  0  0  0  0  0  0  0  0  0  0
    0.0000    0.0000    0.0000 O   0  0  0  0  0  0  0  0  0  0  0  0
    0.0000    0.0000    0.0000 S   0  0  0  0  0  0  0  0  0  0  0  0
    0.0000    0.0000    0.0000 C   0  0  0  0  0  0  0  0  0  0  0  0
  1  2  1  0
  2  3  1  0
  3  4  1  0
  4  5  1  0
  5  6  1  0
  6  7  1  0
  7  8  1  0
  8  9  1  0
  9 10  1  0
 10 11  1  0
 11 12  1  0
 12 13  1  0
 13 14  1  0
 14 15  2  0
 15 16  1  0
 16 17  2  0
 17 18  1  0
 18 19  1  0
 18 20  2  0
  2 21  1  0
 21 22  2  0
 22 23  1  0
 23 24  2  0
 24 25  1  0
 24 26  1  0
 26 27  1  0
 27 28  1  0
 28 29  2  0
 28 30  1  0
 30 31  1  0
 20 14  1  0
 31 21  1  0
 31 26  2  0
M  END
>  <pIC50>  (250) 
5.5

>  <ChEMBL_ID>  (250) 
CHEMBL1807832

>  <document_journal>  (250) 
Bioorg. Med. Chem. Lett.

>  <bao_endpoint>  (250) 
BAO_0000190

>  <potential_duplicate>  (250) 
False

>  <uo_units>  (250) 
UO_0000065

>  <canonical_smiles>  (250) 
O[C@@H](CNCCOCCCNCCc1cccc(Cl)c1)c2ccc(O)c3NC(=O)Sc23

>  <parent_molecule_chembl_id>  (250) 
CHEMBL1807832

>  <assay_type>  (250) 
B

>  <src_id>  (250) 
1

>  <ligand_efficiency>  (250) 
{u'le': u'0.24', u'bei': u'11.8', u'sei': u'4.29', u'lle': u'2.71'}

>  <standard_flag>  (250) 
True

>  <molecule_chembl_id>  (250) 
CHEMBL1807832

>  <target_organism>  (250) 
Homo sapiens

>  <standard_units>  (250) 
nM

>  <record_id>  (250) 
1444256

>  <document_chembl_id>  (250) 
CHEMBL1806408

>  <bao_format>  (250) 
BAO_0000357

>  <data_validity_description>  (250) 
None

>  <activity_id>  (250) 
6292050

>  <standard_type>  (250) 
IC50

>  <target_chembl_id>  (250) 
CHEMBL217

>  <data_validity_comment>  (250) 
None

>  <published_value>  (250) 
5.5

>  <document_year>  (250) 
2011

>  <target_pref_name>  (250) 
Dopamine D2 receptor

>  <assay_chembl_id>  (250) 
CHEMBL1810621

>  <standard_relation>  (250) 
=

>  <assay_description>  (250) 
Binding affinity to dopamine 2 receptor

>  <published_relation>  (250) 
=

>  <standard_value>  (250) 
3162.28

>  <qudt_units>  (250) 
http://www.openphacts.org/units/Nanomolar

>  <target_tax_id>  (250) 
9606

>  <bao_label>  (250) 
single protein format

>  <published_units>  (250) 
None

>  <pchembl_value>  (250) 
5.5

>  <published_type>  (250) 
pIC50

>  <activity_comment>  (250) 
None

$$$$

     RDKit          

 31 33  0  0  0  0  0  0  0  0999 V2000
    0.0000    0.0000    0.0000 O   0  0  0  0  0  0  0  0  0  0  0  0
    0.0000    0.0000    0.0000 C   0  0  0  0  0  0  0  0  0  0  0  0
    0.0000    0.0000    0.0000 C   0  0  0  0  0  0  0  0  0  0  0  0
    0.0000    0.0000    0.0000 N   0  0  0  0  0  0  0  0  0  0  0  0
    0.0000    0.0000    0.0000 C   0  0  0  0  0  0  0  0  0  0  0  0
    0.0000    0.0000    0.0000 C   0  0  0  0  0  0  0  0  0  0  0  0
    0.0000    0.0000    0.0000 C   0  0  0  0  0  0  0  0  0  0  0  0
    0.0000    0.0000    0.0000 S   0  0  0  0  0  0  0  0  0  0  0  0
    0.0000    0.0000    0.0000 C   0  0  0  0  0  0  0  0  0  0  0  0
    0.0000    0.0000    0.0000 C   0  0  0  0  0  0  0  0  0  0  0  0
    0.0000    0.0000    0.0000 N   0  0  0  0  0  0  0  0  0  0  0  0
    0.0000    0.0000    0.0000 C   0  0  0  0  0  0  0  0  0  0  0  0
    0.0000    0.0000    0.0000 C   0  0  0  0  0  0  0  0  0  0  0  0
    0.0000    0.0000    0.0000 C   0  0  0  0  0  0  0  0  0  0  0  0
    0.0000    0.0000    0.0000 C   0  0  0  0  0  0  0  0  0  0  0  0
    0.0000    0.0000    0.0000 C   0  0  0  0  0  0  0  0  0  0  0  0
    0.0000    0.0000    0.0000 C   0  0  0  0  0  0  0  0  0  0  0  0
    0.0000    0.0000    0.0000 C   0  0  0  0  0  0  0  0  0  0  0  0
    0.0000    0.0000    0.0000 Cl  0  0  0  0  0  0  0  0  0  0  0  0
    0.0000    0.0000    0.0000 C   0  0  0  0  0  0  0  0  0  0  0  0
    0.0000    0.0000    0.0000 C   0  0  0  0  0  0  0  0  0  0  0  0
    0.0000    0.0000    0.0000 C   0  0  0  0  0  0  0  0  0  0  0  0
    0.0000    0.0000    0.0000 C   0  0  0  0  0  0  0  0  0  0  0  0
    0.0000    0.0000    0.0000 C   0  0  0  0  0  0  0  0  0  0  0  0
    0.0000    0.0000    0.0000 O   0  0  0  0  0  0  0  0  0  0  0  0
    0.0000    0.0000    0.0000 C   0  0  0  0  0  0  0  0  0  0  0  0
    0.0000    0.0000    0.0000 N   0  0  0  0  0  0  0  0  0  0  0  0
    0.0000    0.0000    0.0000 C   0  0  0  0  0  0  0  0  0  0  0  0
    0.0000    0.0000    0.0000 O   0  0  0  0  0  0  0  0  0  0  0  0
    0.0000    0.0000    0.0000 S   0  0  0  0  0  0  0  0  0  0  0  0
    0.0000    0.0000    0.0000 C   0  0  0  0  0  0  0  0  0  0  0  0
  1  2  1  0
  2  3  1  0
  3  4  1  0
  4  5  1  0
  5  6  1  0
  6  7  1  0
  7  8  1  0
  8  9  1  0
  9 10  1  0
 10 11  1  0
 11 12  1  0
 12 13  1  0
 13 14  1  0
 14 15  2  0
 15 16  1  0
 16 17  2  0
 17 18  1  0
 18 19  1  0
 18 20  2  0
  2 21  1  0
 21 22  2  0
 22 23  1  0
 23 24  2  0
 24 25  1  0
 24 26  1  0
 26 27  1  0
 27 28  1  0
 28 29  2  0
 28 30  1  0
 30 31  1  0
 20 14  1  0
 31 21  1  0
 31 26  2  0
M  END
>  <pIC50>  (251) 
5.8

>  <ChEMBL_ID>  (251) 
CHEMBL1807869

>  <document_journal>  (251) 
Bioorg. Med. Chem. Lett.

>  <bao_endpoint>  (251) 
BAO_0000190

>  <potential_duplicate>  (251) 
False

>  <uo_units>  (251) 
UO_0000065

>  <canonical_smiles>  (251) 
O[C@@H](CNCCCSCCNCCc1cccc(Cl)c1)c2ccc(O)c3NC(=O)Sc23

>  <parent_molecule_chembl_id>  (251) 
CHEMBL1807869

>  <assay_type>  (251) 
B

>  <src_id>  (251) 
1

>  <ligand_efficiency>  (251) 
{u'le': u'0.26', u'bei': u'12.03', u'sei': u'4.02', u'lle': u'2.27'}

>  <standard_flag>  (251) 
True

>  <molecule_chembl_id>  (251) 
CHEMBL1807869

>  <target_organism>  (251) 
Homo sapiens

>  <standard_units>  (251) 
nM

>  <record_id>  (251) 
1444297

>  <document_chembl_id>  (251) 
CHEMBL1806408

>  <bao_format>  (251) 
BAO_0000357

>  <data_validity_description>  (251) 
None

>  <activity_id>  (251) 
6292051

>  <standard_type>  (251) 
IC50

>  <target_chembl_id>  (251) 
CHEMBL217

>  <data_validity_comment>  (251) 
None

>  <published_value>  (251) 
5.8

>  <document_year>  (251) 
2011

>  <target_pref_name>  (251) 
Dopamine D2 receptor

>  <assay_chembl_id>  (251) 
CHEMBL1810621

>  <standard_relation>  (251) 
=

>  <assay_description>  (251) 
Binding affinity to dopamine 2 receptor

>  <published_relation>  (251) 
=

>  <standard_value>  (251) 
1584.89

>  <qudt_units>  (251) 
http://www.openphacts.org/units/Nanomolar

>  <target_tax_id>  (251) 
9606

>  <bao_label>  (251) 
single protein format

>  <published_units>  (251) 
None

>  <pchembl_value>  (251) 
5.8

>  <published_type>  (251) 
pIC50

>  <activity_comment>  (251) 
None

$$$$

     RDKit          

 31 33  0  0  0  0  0  0  0  0999 V2000
    0.0000    0.0000    0.0000 O   0  0  0  0  0  0  0  0  0  0  0  0
    0.0000    0.0000    0.0000 C   0  0  0  0  0  0  0  0  0  0  0  0
    0.0000    0.0000    0.0000 C   0  0  0  0  0  0  0  0  0  0  0  0
    0.0000    0.0000    0.0000 N   0  0  0  0  0  0  0  0  0  0  0  0
    0.0000    0.0000    0.0000 C   0  0  0  0  0  0  0  0  0  0  0  0
    0.0000    0.0000    0.0000 C   0  0  0  0  0  0  0  0  0  0  0  0
    0.0000    0.0000    0.0000 C   0  0  0  0  0  0  0  0  0  0  0  0
    0.0000    0.0000    0.0000 S   0  0  0  0  0  0  0  0  0  0  0  0
    0.0000    0.0000    0.0000 C   0  0  0  0  0  0  0  0  0  0  0  0
    0.0000    0.0000    0.0000 C   0  0  0  0  0  0  0  0  0  0  0  0
    0.0000    0.0000    0.0000 N   0  0  0  0  0  0  0  0  0  0  0  0
    0.0000    0.0000    0.0000 C   0  0  0  0  0  0  0  0  0  0  0  0
    0.0000    0.0000    0.0000 C   0  0  0  0  0  0  0  0  0  0  0  0
    0.0000    0.0000    0.0000 C   0  0  0  0  0  0  0  0  0  0  0  0
    0.0000    0.0000    0.0000 C   0  0  0  0  0  0  0  0  0  0  0  0
    0.0000    0.0000    0.0000 C   0  0  0  0  0  0  0  0  0  0  0  0
    0.0000    0.0000    0.0000 C   0  0  0  0  0  0  0  0  0  0  0  0
    0.0000    0.0000    0.0000 C   0  0  0  0  0  0  0  0  0  0  0  0
    0.0000    0.0000    0.0000 C   0  0  0  0  0  0  0  0  0  0  0  0
    0.0000    0.0000    0.0000 Cl  0  0  0  0  0  0  0  0  0  0  0  0
    0.0000    0.0000    0.0000 C   0  0  0  0  0  0  0  0  0  0  0  0
    0.0000    0.0000    0.0000 C   0  0  0  0  0  0  0  0  0  0  0  0
    0.0000    0.0000    0.0000 C   0  0  0  0  0  0  0  0  0  0  0  0
    0.0000    0.0000    0.0000 C   0  0  0  0  0  0  0  0  0  0  0  0
    0.0000    0.0000    0.0000 O   0  0  0  0  0  0  0  0  0  0  0  0
    0.0000    0.0000    0.0000 C   0  0  0  0  0  0  0  0  0  0  0  0
    0.0000    0.0000    0.0000 N   0  0  0  0  0  0  0  0  0  0  0  0
    0.0000    0.0000    0.0000 C   0  0  0  0  0  0  0  0  0  0  0  0
    0.0000    0.0000    0.0000 O   0  0  0  0  0  0  0  0  0  0  0  0
    0.0000    0.0000    0.0000 S   0  0  0  0  0  0  0  0  0  0  0  0
    0.0000    0.0000    0.0000 C   0  0  0  0  0  0  0  0  0  0  0  0
  1  2  1  0
  2  3  1  0
  3  4  1  0
  4  5  1  0
  5  6  1  0
  6  7  1  0
  7  8  1  0
  8  9  1  0
  9 10  1  0
 10 11  1  0
 11 12  1  0
 12 13  1  0
 13 14  1  0
 14 15  2  0
 15 16  1  0
 16 17  2  0
 17 18  1  0
 18 19  2  0
 19 20  1  0
  2 21  1  0
 21 22  2  0
 22 23  1  0
 23 24  2  0
 24 25  1  0
 24 26  1  0
 26 27  1  0
 27 28  1  0
 28 29  2  0
 28 30  1  0
 30 31  1  0
 19 14  1  0
 31 21  1  0
 31 26  2  0
M  END
>  <pIC50>  (252) 
6.0

>  <ChEMBL_ID>  (252) 
CHEMBL1807870

>  <document_journal>  (252) 
Bioorg. Med. Chem. Lett.

>  <bao_endpoint>  (252) 
BAO_0000190

>  <potential_duplicate>  (252) 
False

>  <uo_units>  (252) 
UO_0000065

>  <canonical_smiles>  (252) 
O[C@@H](CNCCCSCCNCCc1ccccc1Cl)c2ccc(O)c3NC(=O)Sc23

>  <parent_molecule_chembl_id>  (252) 
CHEMBL1807870

>  <assay_type>  (252) 
B

>  <src_id>  (252) 
1

>  <ligand_efficiency>  (252) 
{u'le': u'0.26', u'bei': u'12.45', u'sei': u'4.16', u'lle': u'2.47'}

>  <standard_flag>  (252) 
True

>  <molecule_chembl_id>  (252) 
CHEMBL1807870

>  <target_organism>  (252) 
Homo sapiens

>  <standard_units>  (252) 
nM

>  <record_id>  (252) 
1444298

>  <document_chembl_id>  (252) 
CHEMBL1806408

>  <bao_format>  (252) 
BAO_0000357

>  <data_validity_description>  (252) 
None

>  <activity_id>  (252) 
6292052

>  <standard_type>  (252) 
IC50

>  <target_chembl_id>  (252) 
CHEMBL217

>  <data_validity_comment>  (252) 
None

>  <published_value>  (252) 
6

>  <document_year>  (252) 
2011

>  <target_pref_name>  (252) 
Dopamine D2 receptor

>  <assay_chembl_id>  (252) 
CHEMBL1810621

>  <standard_relation>  (252) 
=

>  <assay_description>  (252) 
Binding affinity to dopamine 2 receptor

>  <published_relation>  (252) 
=

>  <standard_value>  (252) 
1000

>  <qudt_units>  (252) 
http://www.openphacts.org/units/Nanomolar

>  <target_tax_id>  (252) 
9606

>  <bao_label>  (252) 
single protein format

>  <published_units>  (252) 
None

>  <pchembl_value>  (252) 
6

>  <published_type>  (252) 
pIC50

>  <activity_comment>  (252) 
None

$$$$

     RDKit          

 32 34  0  0  0  0  0  0  0  0999 V2000
    0.0000    0.0000    0.0000 O   0  0  0  0  0  0  0  0  0  0  0  0
    0.0000    0.0000    0.0000 C   0  0  0  0  0  0  0  0  0  0  0  0
    0.0000    0.0000    0.0000 C   0  0  0  0  0  0  0  0  0  0  0  0
    0.0000    0.0000    0.0000 N   0  0  0  0  0  0  0  0  0  0  0  0
    0.0000    0.0000    0.0000 C   0  0  0  0  0  0  0  0  0  0  0  0
    0.0000    0.0000    0.0000 C   0  0  0  0  0  0  0  0  0  0  0  0
    0.0000    0.0000    0.0000 C   0  0  0  0  0  0  0  0  0  0  0  0
    0.0000    0.0000    0.0000 S   0  0  0  0  0  0  0  0  0  0  0  0
    0.0000    0.0000    0.0000 C   0  0  0  0  0  0  0  0  0  0  0  0
    0.0000    0.0000    0.0000 C   0  0  0  0  0  0  0  0  0  0  0  0
    0.0000    0.0000    0.0000 N   0  0  0  0  0  0  0  0  0  0  0  0
    0.0000    0.0000    0.0000 C   0  0  0  0  0  0  0  0  0  0  0  0
    0.0000    0.0000    0.0000 C   0  0  0  0  0  0  0  0  0  0  0  0
    0.0000    0.0000    0.0000 C   0  0  0  0  0  0  0  0  0  0  0  0
    0.0000    0.0000    0.0000 C   0  0  0  0  0  0  0  0  0  0  0  0
    0.0000    0.0000    0.0000 C   0  0  0  0  0  0  0  0  0  0  0  0
    0.0000    0.0000    0.0000 C   0  0  0  0  0  0  0  0  0  0  0  0
    0.0000    0.0000    0.0000 C   0  0  0  0  0  0  0  0  0  0  0  0
    0.0000    0.0000    0.0000 Cl  0  0  0  0  0  0  0  0  0  0  0  0
    0.0000    0.0000    0.0000 C   0  0  0  0  0  0  0  0  0  0  0  0
    0.0000    0.0000    0.0000 Cl  0  0  0  0  0  0  0  0  0  0  0  0
    0.0000    0.0000    0.0000 C   0  0  0  0  0  0  0  0  0  0  0  0
    0.0000    0.0000    0.0000 C   0  0  0  0  0  0  0  0  0  0  0  0
    0.0000    0.0000    0.0000 C   0  0  0  0  0  0  0  0  0  0  0  0
    0.0000    0.0000    0.0000 C   0  0  0  0  0  0  0  0  0  0  0  0
    0.0000    0.0000    0.0000 O   0  0  0  0  0  0  0  0  0  0  0  0
    0.0000    0.0000    0.0000 C   0  0  0  0  0  0  0  0  0  0  0  0
    0.0000    0.0000    0.0000 N   0  0  0  0  0  0  0  0  0  0  0  0
    0.0000    0.0000    0.0000 C   0  0  0  0  0  0  0  0  0  0  0  0
    0.0000    0.0000    0.0000 O   0  0  0  0  0  0  0  0  0  0  0  0
    0.0000    0.0000    0.0000 S   0  0  0  0  0  0  0  0  0  0  0  0
    0.0000    0.0000    0.0000 C   0  0  0  0  0  0  0  0  0  0  0  0
  1  2  1  0
  2  3  1  0
  3  4  1  0
  4  5  1  0
  5  6  1  0
  6  7  1  0
  7  8  1  0
  8  9  1  0
  9 10  1  0
 10 11  1  0
 11 12  1  0
 12 13  1  0
 13 14  1  0
 14 15  2  0
 15 16  1  0
 16 17  2  0
 17 18  1  0
 18 19  1  0
 18 20  2  0
 20 21  1  0
  2 22  1  0
 22 23  2  0
 23 24  1  0
 24 25  2  0
 25 26  1  0
 25 27  1  0
 27 28  1  0
 28 29  1  0
 29 30  2  0
 29 31  1  0
 31 32  1  0
 20 14  1  0
 32 22  1  0
 32 27  2  0
M  END
>  <pIC50>  (253) 
6.0

>  <ChEMBL_ID>  (253) 
CHEMBL1807871

>  <document_journal>  (253) 
Bioorg. Med. Chem. Lett.

>  <bao_endpoint>  (253) 
BAO_0000190

>  <potential_duplicate>  (253) 
False

>  <uo_units>  (253) 
UO_0000065

>  <canonical_smiles>  (253) 
O[C@@H](CNCCCSCCNCCc1cccc(Cl)c1Cl)c2ccc(O)c3NC(=O)Sc23

>  <parent_molecule_chembl_id>  (253) 
CHEMBL1807871

>  <assay_type>  (253) 
B

>  <src_id>  (253) 
1

>  <ligand_efficiency>  (253) 
{u'le': u'0.26', u'bei': u'11.62', u'sei': u'4.16', u'lle': u'1.8'}

>  <standard_flag>  (253) 
True

>  <molecule_chembl_id>  (253) 
CHEMBL1807871

>  <target_organism>  (253) 
Homo sapiens

>  <standard_units>  (253) 
nM

>  <record_id>  (253) 
1444299

>  <document_chembl_id>  (253) 
CHEMBL1806408

>  <bao_format>  (253) 
BAO_0000357

>  <data_validity_description>  (253) 
None

>  <activity_id>  (253) 
6292053

>  <standard_type>  (253) 
IC50

>  <target_chembl_id>  (253) 
CHEMBL217

>  <data_validity_comment>  (253) 
None

>  <published_value>  (253) 
6

>  <document_year>  (253) 
2011

>  <target_pref_name>  (253) 
Dopamine D2 receptor

>  <assay_chembl_id>  (253) 
CHEMBL1810621

>  <standard_relation>  (253) 
=

>  <assay_description>  (253) 
Binding affinity to dopamine 2 receptor

>  <published_relation>  (253) 
=

>  <standard_value>  (253) 
1000

>  <qudt_units>  (253) 
http://www.openphacts.org/units/Nanomolar

>  <target_tax_id>  (253) 
9606

>  <bao_label>  (253) 
single protein format

>  <published_units>  (253) 
None

>  <pchembl_value>  (253) 
6

>  <published_type>  (253) 
pIC50

>  <activity_comment>  (253) 
None

$$$$

     RDKit          

 32 34  0  0  0  0  0  0  0  0999 V2000
    0.0000    0.0000    0.0000 O   0  0  0  0  0  0  0  0  0  0  0  0
    0.0000    0.0000    0.0000 C   0  0  0  0  0  0  0  0  0  0  0  0
    0.0000    0.0000    0.0000 C   0  0  0  0  0  0  0  0  0  0  0  0
    0.0000    0.0000    0.0000 N   0  0  0  0  0  0  0  0  0  0  0  0
    0.0000    0.0000    0.0000 C   0  0  0  0  0  0  0  0  0  0  0  0
    0.0000    0.0000    0.0000 C   0  0  0  0  0  0  0  0  0  0  0  0
    0.0000    0.0000    0.0000 C   0  0  0  0  0  0  0  0  0  0  0  0
    0.0000    0.0000    0.0000 O   0  0  0  0  0  0  0  0  0  0  0  0
    0.0000    0.0000    0.0000 C   0  0  0  0  0  0  0  0  0  0  0  0
    0.0000    0.0000    0.0000 C   0  0  0  0  0  0  0  0  0  0  0  0
    0.0000    0.0000    0.0000 N   0  0  0  0  0  0  0  0  0  0  0  0
    0.0000    0.0000    0.0000 C   0  0  0  0  0  0  0  0  0  0  0  0
    0.0000    0.0000    0.0000 C   0  0  0  0  0  0  0  0  0  0  0  0
    0.0000    0.0000    0.0000 C   0  0  0  0  0  0  0  0  0  0  0  0
    0.0000    0.0000    0.0000 C   0  0  0  0  0  0  0  0  0  0  0  0
    0.0000    0.0000    0.0000 C   0  0  0  0  0  0  0  0  0  0  0  0
    0.0000    0.0000    0.0000 C   0  0  0  0  0  0  0  0  0  0  0  0
    0.0000    0.0000    0.0000 C   0  0  0  0  0  0  0  0  0  0  0  0
    0.0000    0.0000    0.0000 Cl  0  0  0  0  0  0  0  0  0  0  0  0
    0.0000    0.0000    0.0000 C   0  0  0  0  0  0  0  0  0  0  0  0
    0.0000    0.0000    0.0000 Cl  0  0  0  0  0  0  0  0  0  0  0  0
    0.0000    0.0000    0.0000 C   0  0  0  0  0  0  0  0  0  0  0  0
    0.0000    0.0000    0.0000 C   0  0  0  0  0  0  0  0  0  0  0  0
    0.0000    0.0000    0.0000 C   0  0  0  0  0  0  0  0  0  0  0  0
    0.0000    0.0000    0.0000 C   0  0  0  0  0  0  0  0  0  0  0  0
    0.0000    0.0000    0.0000 O   0  0  0  0  0  0  0  0  0  0  0  0
    0.0000    0.0000    0.0000 C   0  0  0  0  0  0  0  0  0  0  0  0
    0.0000    0.0000    0.0000 N   0  0  0  0  0  0  0  0  0  0  0  0
    0.0000    0.0000    0.0000 C   0  0  0  0  0  0  0  0  0  0  0  0
    0.0000    0.0000    0.0000 O   0  0  0  0  0  0  0  0  0  0  0  0
    0.0000    0.0000    0.0000 S   0  0  0  0  0  0  0  0  0  0  0  0
    0.0000    0.0000    0.0000 C   0  0  0  0  0  0  0  0  0  0  0  0
  1  2  1  0
  2  3  1  0
  3  4  1  0
  4  5  1  0
  5  6  1  0
  6  7  1  0
  7  8  1  0
  8  9  1  0
  9 10  1  0
 10 11  1  0
 11 12  1  0
 12 13  1  0
 13 14  1  0
 14 15  2  0
 15 16  1  0
 16 17  2  0
 17 18  1  0
 18 19  1  0
 18 20  2  0
 20 21  1  0
  2 22  1  0
 22 23  2  0
 23 24  1  0
 24 25  2  0
 25 26  1  0
 25 27  1  0
 27 28  1  0
 28 29  1  0
 29 30  2  0
 29 31  1  0
 31 32  1  0
 20 14  1  0
 32 22  1  0
 32 27  2  0
M  END
>  <pIC50>  (254) 
5.7

>  <ChEMBL_ID>  (254) 
CHEMBL1807873

>  <document_journal>  (254) 
Bioorg. Med. Chem. Lett.

>  <bao_endpoint>  (254) 
BAO_0000190

>  <potential_duplicate>  (254) 
False

>  <uo_units>  (254) 
UO_0000065

>  <canonical_smiles>  (254) 
O[C@@H](CNCCCOCCNCCc1cccc(Cl)c1Cl)c2ccc(O)c3NC(=O)Sc23

>  <parent_molecule_chembl_id>  (254) 
CHEMBL1807873

>  <assay_type>  (254) 
B

>  <src_id>  (254) 
1

>  <ligand_efficiency>  (254) 
{u'le': u'0.24', u'bei': u'11.39', u'sei': u'4.45', u'lle': u'2.25'}

>  <standard_flag>  (254) 
True

>  <molecule_chembl_id>  (254) 
CHEMBL1807873

>  <target_organism>  (254) 
Homo sapiens

>  <standard_units>  (254) 
nM

>  <record_id>  (254) 
1444301

>  <document_chembl_id>  (254) 
CHEMBL1806408

>  <bao_format>  (254) 
BAO_0000357

>  <data_validity_description>  (254) 
None

>  <activity_id>  (254) 
6292055

>  <standard_type>  (254) 
IC50

>  <target_chembl_id>  (254) 
CHEMBL217

>  <data_validity_comment>  (254) 
None

>  <published_value>  (254) 
5.7

>  <document_year>  (254) 
2011

>  <target_pref_name>  (254) 
Dopamine D2 receptor

>  <assay_chembl_id>  (254) 
CHEMBL1810621

>  <standard_relation>  (254) 
=

>  <assay_description>  (254) 
Binding affinity to dopamine 2 receptor

>  <published_relation>  (254) 
=

>  <standard_value>  (254) 
1995.26

>  <qudt_units>  (254) 
http://www.openphacts.org/units/Nanomolar

>  <target_tax_id>  (254) 
9606

>  <bao_label>  (254) 
single protein format

>  <published_units>  (254) 
None

>  <pchembl_value>  (254) 
5.7

>  <published_type>  (254) 
pIC50

>  <activity_comment>  (254) 
None

$$$$

     RDKit          

 31 33  0  0  0  0  0  0  0  0999 V2000
    0.0000    0.0000    0.0000 C   0  0  0  0  0  0  0  0  0  0  0  0
    0.0000    0.0000    0.0000 N   0  0  0  0  0  0  0  0  0  0  0  0
    0.0000    0.0000    0.0000 C   0  0  0  0  0  0  0  0  0  0  0  0
    0.0000    0.0000    0.0000 C   0  0  0  0  0  0  0  0  0  0  0  0
    0.0000    0.0000    0.0000 O   0  0  0  0  0  0  0  0  0  0  0  0
    0.0000    0.0000    0.0000 C   0  0  0  0  0  0  0  0  0  0  0  0
    0.0000    0.0000    0.0000 C   0  0  0  0  0  0  0  0  0  0  0  0
    0.0000    0.0000    0.0000 C   0  0  0  0  0  0  0  0  0  0  0  0
    0.0000    0.0000    0.0000 N   0  0  0  0  0  0  0  0  0  0  0  0
    0.0000    0.0000    0.0000 C   0  0  0  0  0  0  0  0  0  0  0  0
    0.0000    0.0000    0.0000 C   0  0  0  0  0  0  0  0  0  0  0  0
    0.0000    0.0000    0.0000 O   0  0  0  0  0  0  0  0  0  0  0  0
    0.0000    0.0000    0.0000 C   0  0  0  0  0  0  0  0  0  0  0  0
    0.0000    0.0000    0.0000 C   0  0  0  0  0  0  0  0  0  0  0  0
    0.0000    0.0000    0.0000 C   0  0  0  0  0  0  0  0  0  0  0  0
    0.0000    0.0000    0.0000 C   0  0  0  0  0  0  0  0  0  0  0  0
    0.0000    0.0000    0.0000 O   0  0  0  0  0  0  0  0  0  0  0  0
    0.0000    0.0000    0.0000 C   0  0  0  0  0  0  0  0  0  0  0  0
    0.0000    0.0000    0.0000 N   0  0  0  0  0  0  0  0  0  0  0  0
    0.0000    0.0000    0.0000 C   0  0  0  0  0  0  0  0  0  0  0  0
    0.0000    0.0000    0.0000 O   0  0  0  0  0  0  0  0  0  0  0  0
    0.0000    0.0000    0.0000 S   0  0  0  0  0  0  0  0  0  0  0  0
    0.0000    0.0000    0.0000 C   0  0  0  0  0  0  0  0  0  0  0  0
    0.0000    0.0000    0.0000 C   0  0  0  0  0  0  0  0  0  0  0  0
    0.0000    0.0000    0.0000 C   0  0  0  0  0  0  0  0  0  0  0  0
    0.0000    0.0000    0.0000 C   0  0  0  0  0  0  0  0  0  0  0  0
    0.0000    0.0000    0.0000 C   0  0  0  0  0  0  0  0  0  0  0  0
    0.0000    0.0000    0.0000 C   0  0  0  0  0  0  0  0  0  0  0  0
    0.0000    0.0000    0.0000 C   0  0  0  0  0  0  0  0  0  0  0  0
    0.0000    0.0000    0.0000 C   0  0  0  0  0  0  0  0  0  0  0  0
    0.0000    0.0000    0.0000 C   0  0  0  0  0  0  0  0  0  0  0  0
  1  2  1  0
  2  3  1  0
  3  4  1  0
  4  5  1  0
  5  6  1  0
  6  7  1  0
  7  8  1  0
  8  9  1  0
  9 10  1  0
 10 11  1  0
 11 12  1  0
 11 13  1  0
 13 14  2  0
 14 15  1  0
 15 16  2  0
 16 17  1  0
 16 18  1  0
 18 19  1  0
 19 20  1  0
 20 21  2  0
 20 22  1  0
 22 23  1  0
  2 24  1  0
 24 25  1  0
 25 26  1  0
 26 27  2  0
 27 28  1  0
 28 29  2  0
 29 30  1  0
 30 31  2  0
 23 13  1  0
 23 18  2  0
 31 26  1  0
M  END
>  <pIC50>  (255) 
5.6

>  <ChEMBL_ID>  (255) 
CHEMBL1807874

>  <document_journal>  (255) 
Bioorg. Med. Chem. Lett.

>  <bao_endpoint>  (255) 
BAO_0000190

>  <potential_duplicate>  (255) 
False

>  <uo_units>  (255) 
UO_0000065

>  <canonical_smiles>  (255) 
CN(CCOCCCNC[C@H](O)c1ccc(O)c2NC(=O)Sc12)CCc3ccccc3

>  <parent_molecule_chembl_id>  (255) 
CHEMBL1807874

>  <assay_type>  (255) 
B

>  <src_id>  (255) 
1

>  <ligand_efficiency>  (255) 
{u'le': u'0.25', u'bei': u'12.57', u'sei': u'4.69', u'lle': u'2.94'}

>  <standard_flag>  (255) 
True

>  <molecule_chembl_id>  (255) 
CHEMBL1807874

>  <target_organism>  (255) 
Homo sapiens

>  <standard_units>  (255) 
nM

>  <record_id>  (255) 
1444302

>  <document_chembl_id>  (255) 
CHEMBL1806408

>  <bao_format>  (255) 
BAO_0000357

>  <data_validity_description>  (255) 
None

>  <activity_id>  (255) 
6292056

>  <standard_type>  (255) 
IC50

>  <target_chembl_id>  (255) 
CHEMBL217

>  <data_validity_comment>  (255) 
None

>  <published_value>  (255) 
5.6

>  <document_year>  (255) 
2011

>  <target_pref_name>  (255) 
Dopamine D2 receptor

>  <assay_chembl_id>  (255) 
CHEMBL1810621

>  <standard_relation>  (255) 
=

>  <assay_description>  (255) 
Binding affinity to dopamine 2 receptor

>  <published_relation>  (255) 
=

>  <standard_value>  (255) 
2511.89

>  <qudt_units>  (255) 
http://www.openphacts.org/units/Nanomolar

>  <target_tax_id>  (255) 
9606

>  <bao_label>  (255) 
single protein format

>  <published_units>  (255) 
None

>  <pchembl_value>  (255) 
5.6

>  <published_type>  (255) 
pIC50

>  <activity_comment>  (255) 
None

$$$$

     RDKit          

 32 35  0  0  0  0  0  0  0  0999 V2000
    0.0000    0.0000    0.0000 C   0  0  0  0  0  0  0  0  0  0  0  0
    0.0000    0.0000    0.0000 C   0  0  0  0  0  0  0  0  0  0  0  0
    0.0000    0.0000    0.0000 N   0  0  0  0  0  0  0  0  0  0  0  0
    0.0000    0.0000    0.0000 C   0  0  0  0  0  0  0  0  0  0  0  0
    0.0000    0.0000    0.0000 C   0  0  0  0  0  0  0  0  0  0  0  0
    0.0000    0.0000    0.0000 O   0  0  0  0  0  0  0  0  0  0  0  0
    0.0000    0.0000    0.0000 N   0  0  0  0  0  0  0  0  0  0  0  0
    0.0000    0.0000    0.0000 C   0  0  0  0  0  0  0  0  0  0  0  0
    0.0000    0.0000    0.0000 C   0  0  0  0  0  0  0  0  0  0  0  0
    0.0000    0.0000    0.0000 N   0  0  0  0  0  0  0  0  0  0  0  0
    0.0000    0.0000    0.0000 C   0  0  0  0  0  0  0  0  0  0  0  0
    0.0000    0.0000    0.0000 C   0  0  0  0  0  0  0  0  0  0  0  0
    0.0000    0.0000    0.0000 N   0  0  0  0  0  0  0  0  0  0  0  0
    0.0000    0.0000    0.0000 C   0  0  0  0  0  0  0  0  0  0  0  0
    0.0000    0.0000    0.0000 C   0  0  0  0  0  0  0  0  0  0  0  0
    0.0000    0.0000    0.0000 C   0  0  0  0  0  0  0  0  0  0  0  0
    0.0000    0.0000    0.0000 C   0  0  0  0  0  0  0  0  0  0  0  0
    0.0000    0.0000    0.0000 C   0  0  0  0  0  0  0  0  0  0  0  0
    0.0000    0.0000    0.0000 C   0  0  0  0  0  0  0  0  0  0  0  0
    0.0000    0.0000    0.0000 C   0  0  0  0  0  0  0  0  0  0  0  0
    0.0000    0.0000    0.0000 Cl  0  0  0  0  0  0  0  0  0  0  0  0
    0.0000    0.0000    0.0000 C   0  0  0  0  0  0  0  0  0  0  0  0
    0.0000    0.0000    0.0000 Cl  0  0  0  0  0  0  0  0  0  0  0  0
    0.0000    0.0000    0.0000 C   0  0  0  0  0  0  0  0  0  0  0  0
    0.0000    0.0000    0.0000 C   0  0  0  0  0  0  0  0  0  0  0  0
    0.0000    0.0000    0.0000 N   0  0  0  0  0  0  0  0  0  0  0  0
    0.0000    0.0000    0.0000 C   0  0  0  0  0  0  0  0  0  0  0  0
    0.0000    0.0000    0.0000 C   0  0  0  0  0  0  0  0  0  0  0  0
    0.0000    0.0000    0.0000 C   0  0  0  0  0  0  0  0  0  0  0  0
    0.0000    0.0000    0.0000 C   0  0  0  0  0  0  0  0  0  0  0  0
    0.0000    0.0000    0.0000 C   0  0  0  0  0  0  0  0  0  0  0  0
    0.0000    0.0000    0.0000 C   0  0  0  0  0  0  0  0  0  0  0  0
  1  2  1  0
  2  3  2  0
  3  4  1  0
  4  5  1  0
  5  6  2  0
  5  7  1  0
  7  8  1  0
  8  9  1  0
  9 10  1  0
 10 11  1  0
 11 12  1  0
 12 13  1  0
 13 14  1  0
 14 15  1  0
 13 16  1  0
 16 17  2  0
 17 18  1  0
 18 19  2  0
 19 20  1  0
 20 21  1  0
 20 22  2  0
 22 23  1  0
  4 24  2  0
 24 25  1  0
 24 26  1  0
 26 27  1  0
 27 28  2  0
 28 29  1  0
 29 30  2  0
 30 31  1  0
 31 32  2  0
 26  2  1  0
 15 10  1  0
 22 16  1  0
 32 27  1  0
M  END
>  <pIC50>  (256) 
6.04

>  <ChEMBL_ID>  (256) 
CHEMBL3216758

>  <document_journal>  (256) 
J. Med. Chem.

>  <bao_endpoint>  (256) 
BAO_0000190

>  <potential_duplicate>  (256) 
False

>  <uo_units>  (256) 
UO_0000065

>  <canonical_smiles>  (256) 
Cl.Cl.Cl.Cl.Cc1nc(C(=O)NCCN2CCN(CC2)c3cccc(Cl)c3Cl)c(C)n1c4ccccc4

>  <parent_molecule_chembl_id>  (256) 
CHEMBL1852516

>  <assay_type>  (256) 
B

>  <src_id>  (256) 
1

>  <ligand_efficiency>  (256) 
{u'le': u'0.26', u'bei': u'12.79', u'sei': u'11.31', u'lle': u'1.4'}

>  <standard_flag>  (256) 
True

>  <molecule_chembl_id>  (256) 
CHEMBL3216758

>  <target_organism>  (256) 
Homo sapiens

>  <standard_units>  (256) 
nM

>  <record_id>  (256) 
1453764

>  <document_chembl_id>  (256) 
CHEMBL1821711

>  <bao_format>  (256) 
BAO_0000357

>  <data_validity_description>  (256) 
None

>  <activity_id>  (256) 
6338259

>  <standard_type>  (256) 
IC50

>  <target_chembl_id>  (256) 
CHEMBL217

>  <data_validity_comment>  (256) 
None

>  <published_value>  (256) 
908

>  <document_year>  (256) 
2011

>  <target_pref_name>  (256) 
Dopamine D2 receptor

>  <assay_chembl_id>  (256) 
CHEMBL1827739

>  <standard_relation>  (256) 
=

>  <assay_description>  (256) 
Inhibition of dopamine D2 receptor by competition binding assay

>  <published_relation>  (256) 
=

>  <standard_value>  (256) 
908

>  <qudt_units>  (256) 
http://www.openphacts.org/units/Nanomolar

>  <target_tax_id>  (256) 
9606

>  <bao_label>  (256) 
single protein format

>  <published_units>  (256) 
nM

>  <pchembl_value>  (256) 
6.04

>  <published_type>  (256) 
IC50

>  <activity_comment>  (256) 
None

$$$$

     RDKit          

 33 36  0  0  0  0  0  0  0  0999 V2000
    0.0000    0.0000    0.0000 C   0  0  0  0  0  0  0  0  0  0  0  0
    0.0000    0.0000    0.0000 C   0  0  0  0  0  0  0  0  0  0  0  0
    0.0000    0.0000    0.0000 N   0  0  0  0  0  0  0  0  0  0  0  0
    0.0000    0.0000    0.0000 C   0  0  0  0  0  0  0  0  0  0  0  0
    0.0000    0.0000    0.0000 C   0  0  0  0  0  0  0  0  0  0  0  0
    0.0000    0.0000    0.0000 O   0  0  0  0  0  0  0  0  0  0  0  0
    0.0000    0.0000    0.0000 N   0  0  0  0  0  0  0  0  0  0  0  0
    0.0000    0.0000    0.0000 C   0  0  0  0  0  0  0  0  0  0  0  0
    0.0000    0.0000    0.0000 C   0  0  0  0  0  0  0  0  0  0  0  0
    0.0000    0.0000    0.0000 C   0  0  0  0  0  0  0  0  0  0  0  0
    0.0000    0.0000    0.0000 N   0  0  0  0  0  0  0  0  0  0  0  0
    0.0000    0.0000    0.0000 C   0  0  0  0  0  0  0  0  0  0  0  0
    0.0000    0.0000    0.0000 C   0  0  0  0  0  0  0  0  0  0  0  0
    0.0000    0.0000    0.0000 N   0  0  0  0  0  0  0  0  0  0  0  0
    0.0000    0.0000    0.0000 C   0  0  0  0  0  0  0  0  0  0  0  0
    0.0000    0.0000    0.0000 C   0  0  0  0  0  0  0  0  0  0  0  0
    0.0000    0.0000    0.0000 C   0  0  0  0  0  0  0  0  0  0  0  0
    0.0000    0.0000    0.0000 C   0  0  0  0  0  0  0  0  0  0  0  0
    0.0000    0.0000    0.0000 C   0  0  0  0  0  0  0  0  0  0  0  0
    0.0000    0.0000    0.0000 C   0  0  0  0  0  0  0  0  0  0  0  0
    0.0000    0.0000    0.0000 C   0  0  0  0  0  0  0  0  0  0  0  0
    0.0000    0.0000    0.0000 Cl  0  0  0  0  0  0  0  0  0  0  0  0
    0.0000    0.0000    0.0000 C   0  0  0  0  0  0  0  0  0  0  0  0
    0.0000    0.0000    0.0000 Cl  0  0  0  0  0  0  0  0  0  0  0  0
    0.0000    0.0000    0.0000 C   0  0  0  0  0  0  0  0  0  0  0  0
    0.0000    0.0000    0.0000 C   0  0  0  0  0  0  0  0  0  0  0  0
    0.0000    0.0000    0.0000 N   0  0  0  0  0  0  0  0  0  0  0  0
    0.0000    0.0000    0.0000 C   0  0  0  0  0  0  0  0  0  0  0  0
    0.0000    0.0000    0.0000 C   0  0  0  0  0  0  0  0  0  0  0  0
    0.0000    0.0000    0.0000 C   0  0  0  0  0  0  0  0  0  0  0  0
    0.0000    0.0000    0.0000 C   0  0  0  0  0  0  0  0  0  0  0  0
    0.0000    0.0000    0.0000 C   0  0  0  0  0  0  0  0  0  0  0  0
    0.0000    0.0000    0.0000 C   0  0  0  0  0  0  0  0  0  0  0  0
  1  2  1  0
  2  3  2  0
  3  4  1  0
  4  5  1  0
  5  6  2  0
  5  7  1  0
  7  8  1  0
  8  9  1  0
  9 10  1  0
 10 11  1  0
 11 12  1  0
 12 13  1  0
 13 14  1  0
 14 15  1  0
 15 16  1  0
 14 17  1  0
 17 18  2  0
 18 19  1  0
 19 20  2  0
 20 21  1  0
 21 22  1  0
 21 23  2  0
 23 24  1  0
  4 25  2  0
 25 26  1  0
 25 27  1  0
 27 28  1  0
 28 29  2  0
 29 30  1  0
 30 31  2  0
 31 32  1  0
 32 33  2  0
 27  2  1  0
 16 11  1  0
 23 17  1  0
 33 28  1  0
M  END
>  <pIC50>  (257) 
5.86

>  <ChEMBL_ID>  (257) 
CHEMBL3216098

>  <document_journal>  (257) 
J. Med. Chem.

>  <bao_endpoint>  (257) 
BAO_0000190

>  <potential_duplicate>  (257) 
False

>  <uo_units>  (257) 
UO_0000065

>  <canonical_smiles>  (257) 
Cl.Cl.Cl.Cl.Cc1nc(C(=O)NCCCN2CCN(CC2)c3cccc(Cl)c3Cl)c(C)n1c4ccccc4

>  <parent_molecule_chembl_id>  (257) 
CHEMBL1852341

>  <assay_type>  (257) 
B

>  <src_id>  (257) 
1

>  <ligand_efficiency>  (257) 
{u'le': u'0.24', u'bei': u'12.05', u'sei': u'10.98', u'lle': u'1.16'}

>  <standard_flag>  (257) 
True

>  <molecule_chembl_id>  (257) 
CHEMBL3216098

>  <target_organism>  (257) 
Homo sapiens

>  <standard_units>  (257) 
nM

>  <record_id>  (257) 
1453767

>  <document_chembl_id>  (257) 
CHEMBL1821711

>  <bao_format>  (257) 
BAO_0000357

>  <data_validity_description>  (257) 
None

>  <activity_id>  (257) 
6338260

>  <standard_type>  (257) 
IC50

>  <target_chembl_id>  (257) 
CHEMBL217

>  <data_validity_comment>  (257) 
None

>  <published_value>  (257) 
1369

>  <document_year>  (257) 
2011

>  <target_pref_name>  (257) 
Dopamine D2 receptor

>  <assay_chembl_id>  (257) 
CHEMBL1827739

>  <standard_relation>  (257) 
=

>  <assay_description>  (257) 
Inhibition of dopamine D2 receptor by competition binding assay

>  <published_relation>  (257) 
=

>  <standard_value>  (257) 
1369

>  <qudt_units>  (257) 
http://www.openphacts.org/units/Nanomolar

>  <target_tax_id>  (257) 
9606

>  <bao_label>  (257) 
single protein format

>  <published_units>  (257) 
nM

>  <pchembl_value>  (257) 
5.86

>  <published_type>  (257) 
IC50

>  <activity_comment>  (257) 
None

$$$$

     RDKit          

 28 31  0  0  0  0  0  0  0  0999 V2000
    0.0000    0.0000    0.0000 O   0  0  0  0  0  0  0  0  0  0  0  0
    0.0000    0.0000    0.0000 C   0  0  0  0  0  0  0  0  0  0  0  0
    0.0000    0.0000    0.0000 C   0  0  0  0  0  0  0  0  0  0  0  0
    0.0000    0.0000    0.0000 C   0  0  0  0  0  0  0  0  0  0  0  0
    0.0000    0.0000    0.0000 C   0  0  0  0  0  0  0  0  0  0  0  0
    0.0000    0.0000    0.0000 C   0  0  0  0  0  0  0  0  0  0  0  0
    0.0000    0.0000    0.0000 C   0  0  0  0  0  0  0  0  0  0  0  0
    0.0000    0.0000    0.0000 C   0  0  0  0  0  0  0  0  0  0  0  0
    0.0000    0.0000    0.0000 C   0  0  0  0  0  0  0  0  0  0  0  0
    0.0000    0.0000    0.0000 C   0  0  0  0  0  0  0  0  0  0  0  0
    0.0000    0.0000    0.0000 O   0  0  0  0  0  0  0  0  0  0  0  0
    0.0000    0.0000    0.0000 N   0  0  0  0  0  0  0  0  0  0  0  0
    0.0000    0.0000    0.0000 C   0  0  0  0  0  0  0  0  0  0  0  0
    0.0000    0.0000    0.0000 C   0  0  0  0  0  0  0  0  0  0  0  0
    0.0000    0.0000    0.0000 C   0  0  0  0  0  0  0  0  0  0  0  0
    0.0000    0.0000    0.0000 C   0  0  0  0  0  0  0  0  0  0  0  0
    0.0000    0.0000    0.0000 N   0  0  0  0  0  0  0  0  0  0  0  0
    0.0000    0.0000    0.0000 C   0  0  0  0  0  0  0  0  0  0  0  0
    0.0000    0.0000    0.0000 C   0  0  0  0  0  0  0  0  0  0  0  0
    0.0000    0.0000    0.0000 N   0  0  0  0  0  0  0  0  0  0  0  0
    0.0000    0.0000    0.0000 C   0  0  0  0  0  0  0  0  0  0  0  0
    0.0000    0.0000    0.0000 C   0  0  0  0  0  0  0  0  0  0  0  0
    0.0000    0.0000    0.0000 C   0  0  0  0  0  0  0  0  0  0  0  0
    0.0000    0.0000    0.0000 N   0  0  0  0  0  0  0  0  0  0  0  0
    0.0000    0.0000    0.0000 C   0  0  0  0  0  0  0  0  0  0  0  0
    0.0000    0.0000    0.0000 C   0  0  0  0  0  0  0  0  0  0  0  0
    0.0000    0.0000    0.0000 C   0  0  0  0  0  0  0  0  0  0  0  0
    0.0000    0.0000    0.0000 N   0  0  0  0  0  0  0  0  0  0  0  0
  1  2  2  0
  2  3  1  0
  3  4  1  0
  4  5  1  0
  5  6  1  0
  6  7  1  0
  7  8  1  0
  4  9  1  0
  9 10  1  0
 10 11  2  0
 10 12  1  0
 12 13  1  0
 13 14  1  0
 14 15  1  0
 15 16  1  0
 16 17  1  0
 17 18  1  0
 18 19  1  0
 19 20  1  0
 20 21  1  0
 21 22  1  0
 20 23  1  0
 23 24  2  0
 24 25  1  0
 25 26  2  0
 26 27  1  0
 27 28  2  0
 12  2  1  0
  8  4  1  0
 22 17  1  0
 28 23  1  0
M  END
>  <pIC50>  (258) 
6.49

>  <ChEMBL_ID>  (258) 
CHEMBL49

>  <document_journal>  (258) 
None

>  <bao_endpoint>  (258) 
BAO_0000190

>  <potential_duplicate>  (258) 
False

>  <uo_units>  (258) 
UO_0000065

>  <canonical_smiles>  (258) 
O=C1CC2(CCCC2)CC(=O)N1CCCCN3CCN(CC3)c4ncccn4

>  <parent_molecule_chembl_id>  (258) 
CHEMBL49

>  <assay_type>  (258) 
B

>  <src_id>  (258) 
15

>  <ligand_efficiency>  (258) 
{u'le': u'0.32', u'bei': u'16.84', u'sei': u'9.32', u'lle': u'4.47'}

>  <standard_flag>  (258) 
True

>  <molecule_chembl_id>  (258) 
CHEMBL49

>  <target_organism>  (258) 
Homo sapiens

>  <standard_units>  (258) 
nM

>  <record_id>  (258) 
1539569

>  <document_chembl_id>  (258) 
CHEMBL1909046

>  <bao_format>  (258) 
BAO_0000249

>  <data_validity_description>  (258) 
None

>  <activity_id>  (258) 
7605623

>  <standard_type>  (258) 
IC50

>  <target_chembl_id>  (258) 
CHEMBL217

>  <data_validity_comment>  (258) 
None

>  <published_value>  (258) 
0.323

>  <document_year>  (258) 
None

>  <target_pref_name>  (258) 
Dopamine D2 receptor

>  <assay_chembl_id>  (258) 
CHEMBL1909140

>  <standard_relation>  (258) 
=

>  <assay_description>  (258) 
DRUGMATRIX: Dopamine D2L radioligand binding (ligand: [3H] Spiperone)

>  <published_relation>  (258) 
=

>  <standard_value>  (258) 
323

>  <qudt_units>  (258) 
http://www.openphacts.org/units/Nanomolar

>  <target_tax_id>  (258) 
9606

>  <bao_label>  (258) 
cell membrane format

>  <published_units>  (258) 
uM

>  <pchembl_value>  (258) 
6.49

>  <published_type>  (258) 
IC50

>  <activity_comment>  (258) 
None

$$$$

     RDKit          

 43 49  0  0  0  0  0  0  0  0999 V2000
    0.0000    0.0000    0.0000 C   0  0  0  0  0  0  0  0  0  0  0  0
    0.0000    0.0000    0.0000 C   0  0  0  0  0  0  0  0  0  0  0  0
    0.0000    0.0000    0.0000 C   0  0  0  0  0  0  0  0  0  0  0  0
    0.0000    0.0000    0.0000 C   0  0  0  0  0  0  0  0  0  0  0  0
    0.0000    0.0000    0.0000 C   0  0  0  0  0  0  0  0  0  0  0  0
    0.0000    0.0000    0.0000 N   0  0  0  0  0  0  0  0  0  0  0  0
    0.0000    0.0000    0.0000 C   0  0  0  0  0  0  0  0  0  0  0  0
    0.0000    0.0000    0.0000 O   0  0  0  0  0  0  0  0  0  0  0  0
    0.0000    0.0000    0.0000 C   0  0  0  0  0  0  0  0  0  0  0  0
    0.0000    0.0000    0.0000 N   0  0  0  0  0  0  0  0  0  0  0  0
    0.0000    0.0000    0.0000 C   0  0  0  0  0  0  0  0  0  0  0  0
    0.0000    0.0000    0.0000 O   0  0  0  0  0  0  0  0  0  0  0  0
    0.0000    0.0000    0.0000 C   0  0  0  0  0  0  0  0  0  0  0  0
    0.0000    0.0000    0.0000 C   0  0  0  0  0  0  0  0  0  0  0  0
    0.0000    0.0000    0.0000 N   0  0  0  0  0  0  0  0  0  0  0  0
    0.0000    0.0000    0.0000 C   0  0  0  0  0  0  0  0  0  0  0  0
    0.0000    0.0000    0.0000 C   0  0  0  0  0  0  0  0  0  0  0  0
    0.0000    0.0000    0.0000 C   0  0  0  0  0  0  0  0  0  0  0  0
    0.0000    0.0000    0.0000 C   0  0  0  0  0  0  0  0  0  0  0  0
    0.0000    0.0000    0.0000 C   0  0  0  0  0  0  0  0  0  0  0  0
    0.0000    0.0000    0.0000 Br  0  0  0  0  0  0  0  0  0  0  0  0
    0.0000    0.0000    0.0000 N   0  0  0  0  0  0  0  0  0  0  0  0
    0.0000    0.0000    0.0000 C   0  0  0  0  0  0  0  0  0  0  0  0
    0.0000    0.0000    0.0000 C   0  0  0  0  0  0  0  0  0  0  0  0
    0.0000    0.0000    0.0000 C   0  0  0  0  0  0  0  0  0  0  0  0
    0.0000    0.0000    0.0000 C   0  0  0  0  0  0  0  0  0  0  0  0
    0.0000    0.0000    0.0000 C   0  0  0  0  0  0  0  0  0  0  0  0
    0.0000    0.0000    0.0000 C   0  0  0  0  0  0  0  0  0  0  0  0
    0.0000    0.0000    0.0000 C   0  0  0  0  0  0  0  0  0  0  0  0
    0.0000    0.0000    0.0000 C   0  0  0  0  0  0  0  0  0  0  0  0
    0.0000    0.0000    0.0000 O   0  0  0  0  0  0  0  0  0  0  0  0
    0.0000    0.0000    0.0000 C   0  0  0  0  0  0  0  0  0  0  0  0
    0.0000    0.0000    0.0000 O   0  0  0  0  0  0  0  0  0  0  0  0
    0.0000    0.0000    0.0000 C   0  0  0  0  0  0  0  0  0  0  0  0
    0.0000    0.0000    0.0000 C   0  0  0  0  0  0  0  0  0  0  0  0
    0.0000    0.0000    0.0000 C   0  0  0  0  0  0  0  0  0  0  0  0
    0.0000    0.0000    0.0000 C   0  0  0  0  0  0  0  0  0  0  0  0
    0.0000    0.0000    0.0000 N   0  0  0  0  0  0  0  0  0  0  0  0
    0.0000    0.0000    0.0000 C   0  0  0  0  0  0  0  0  0  0  0  0
    0.0000    0.0000    0.0000 O   0  0  0  0  0  0  0  0  0  0  0  0
    0.0000    0.0000    0.0000 C   0  0  0  0  0  0  0  0  0  0  0  0
    0.0000    0.0000    0.0000 C   0  0  0  0  0  0  0  0  0  0  0  0
    0.0000    0.0000    0.0000 C   0  0  0  0  0  0  0  0  0  0  0  0
  1  2  1  0
  2  3  1  0
  2  4  1  0
  4  5  1  0
  5  6  1  0
  6  7  1  0
  7  8  2  0
  7  9  1  0
  9 10  1  0
 10 11  1  0
 11 12  2  0
 11 13  1  0
 13 14  1  0
 14 15  1  0
 15 16  1  0
 15 17  1  0
 17 18  1  0
 18 19  1  0
 19 20  2  0
 20 21  1  0
 20 22  1  0
 22 23  1  0
 23 24  2  0
 24 25  1  0
 25 26  2  0
 26 27  1  0
 27 28  1  0
 28 29  2  0
 27 30  2  0
  9 31  1  0
 31 32  1  0
 32 33  1  0
 32 34  1  0
 34 35  1  0
 35 36  1  0
 36 37  1  0
 37 38  1  0
 38 39  1  0
 39 40  2  0
  9 41  1  0
 41 42  1  0
 41 43  1  0
 39  5  1  0
 32  6  1  0
 29 13  1  0
 28 17  1  0
 30 19  1  0
 30 23  1  0
 38 34  1  0
M  END
>  <pIC50>  (259) 
8.8

>  <ChEMBL_ID>  (259) 
CHEMBL493

>  <document_journal>  (259) 
None

>  <bao_endpoint>  (259) 
BAO_0000190

>  <potential_duplicate>  (259) 
False

>  <uo_units>  (259) 
UO_0000065

>  <canonical_smiles>  (259) 
CC(C)C[C@@H]1N2C(=O)[C@](NC(=O)[C@H]3CN(C)[C@@H]4Cc5c(Br)[nH]c6cccc(C4=C3)c56)(O[C@@]2(O)[C@@H]7CCCN7C1=O)C(C)C

>  <parent_molecule_chembl_id>  (259) 
CHEMBL493

>  <assay_type>  (259) 
B

>  <src_id>  (259) 
15

>  <ligand_efficiency>  (259) 
{u'le': u'0.28', u'bei': u'13.44', u'sei': u'7.45', u'lle': u'4.44'}

>  <standard_flag>  (259) 
True

>  <molecule_chembl_id>  (259) 
CHEMBL493

>  <target_organism>  (259) 
Homo sapiens

>  <standard_units>  (259) 
nM

>  <record_id>  (259) 
1539564

>  <document_chembl_id>  (259) 
CHEMBL1909046

>  <bao_format>  (259) 
BAO_0000249

>  <data_validity_description>  (259) 
None

>  <activity_id>  (259) 
7613895

>  <standard_type>  (259) 
IC50

>  <target_chembl_id>  (259) 
CHEMBL217

>  <data_validity_comment>  (259) 
None

>  <published_value>  (259) 
0.001582

>  <document_year>  (259) 
None

>  <target_pref_name>  (259) 
Dopamine D2 receptor

>  <assay_chembl_id>  (259) 
CHEMBL1909140

>  <standard_relation>  (259) 
=

>  <assay_description>  (259) 
DRUGMATRIX: Dopamine D2L radioligand binding (ligand: [3H] Spiperone)

>  <published_relation>  (259) 
=

>  <standard_value>  (259) 
1.582

>  <qudt_units>  (259) 
http://www.openphacts.org/units/Nanomolar

>  <target_tax_id>  (259) 
9606

>  <bao_label>  (259) 
cell membrane format

>  <published_units>  (259) 
uM

>  <pchembl_value>  (259) 
8.8

>  <published_type>  (259) 
IC50

>  <activity_comment>  (259) 
None

$$$$

     RDKit          

 20 23  0  0  0  0  0  0  0  0999 V2000
    0.0000    0.0000    0.0000 S   0  0  0  0  0  0  0  0  0  0  0  0
    0.0000    0.0000    0.0000 S   0  0  0  0  0  0  0  0  0  0  0  0
    0.0000    0.0000    0.0000 C   0  0  0  0  0  0  0  0  0  0  0  0
    0.0000    0.0000    0.0000 N   0  0  0  0  0  0  0  0  0  0  0  0
    0.0000    0.0000    0.0000 C   0  0  0  0  0  0  0  0  0  0  0  0
    0.0000    0.0000    0.0000 C   0  0  0  0  0  0  0  0  0  0  0  0
    0.0000    0.0000    0.0000 C   0  0  0  0  0  0  0  0  0  0  0  0
    0.0000    0.0000    0.0000 C   0  0  0  0  0  0  0  0  0  0  0  0
    0.0000    0.0000    0.0000 C   0  0  0  0  0  0  0  0  0  0  0  0
    0.0000    0.0000    0.0000 C   0  0  0  0  0  0  0  0  0  0  0  0
    0.0000    0.0000    0.0000 S   0  0  0  0  0  0  0  0  0  0  0  0
    0.0000    0.0000    0.0000 C   0  0  0  0  0  0  0  0  0  0  0  0
    0.0000    0.0000    0.0000 N   0  0  0  0  0  0  0  0  0  0  0  0
    0.0000    0.0000    0.0000 C   0  0  0  0  0  0  0  0  0  0  0  0
    0.0000    0.0000    0.0000 C   0  0  0  0  0  0  0  0  0  0  0  0
    0.0000    0.0000    0.0000 C   0  0  0  0  0  0  0  0  0  0  0  0
    0.0000    0.0000    0.0000 C   0  0  0  0  0  0  0  0  0  0  0  0
    0.0000    0.0000    0.0000 C   0  0  0  0  0  0  0  0  0  0  0  0
    0.0000    0.0000    0.0000 C   0  0  0  0  0  0  0  0  0  0  0  0
    0.0000    0.0000    0.0000 S   0  0  0  0  0  0  0  0  0  0  0  0
  1  2  1  0
  2  3  1  0
  3  4  2  0
  4  5  1  0
  5  6  2  0
  6  7  1  0
  7  8  2  0
  8  9  1  0
  9 10  2  0
 10 11  1  0
  1 12  1  0
 12 13  2  0
 13 14  1  0
 14 15  2  0
 15 16  1  0
 16 17  2  0
 17 18  1  0
 18 19  2  0
 19 20  1  0
 11  3  1  0
 10  5  1  0
 20 12  1  0
 19 14  1  0
M  END
>  <pIC50>  (260) 
5.23

>  <ChEMBL_ID>  (260) 
CHEMBL508112

>  <document_journal>  (260) 
None

>  <bao_endpoint>  (260) 
BAO_0000190

>  <potential_duplicate>  (260) 
False

>  <uo_units>  (260) 
UO_0000065

>  <canonical_smiles>  (260) 
S(Sc1nc2ccccc2s1)c3nc4ccccc4s3

>  <parent_molecule_chembl_id>  (260) 
CHEMBL508112

>  <assay_type>  (260) 
B

>  <src_id>  (260) 
15

>  <ligand_efficiency>  (260) 
{u'le': u'0.36', u'bei': u'15.73', u'sei': u'3.94', u'lle': u'-0.56'}

>  <standard_flag>  (260) 
True

>  <molecule_chembl_id>  (260) 
CHEMBL508112

>  <target_organism>  (260) 
Homo sapiens

>  <standard_units>  (260) 
nM

>  <record_id>  (260) 
1539540

>  <document_chembl_id>  (260) 
CHEMBL1909046

>  <bao_format>  (260) 
BAO_0000249

>  <data_validity_description>  (260) 
None

>  <activity_id>  (260) 
7614947

>  <standard_type>  (260) 
IC50

>  <target_chembl_id>  (260) 
CHEMBL217

>  <data_validity_comment>  (260) 
None

>  <published_value>  (260) 
5.866

>  <document_year>  (260) 
None

>  <target_pref_name>  (260) 
Dopamine D2 receptor

>  <assay_chembl_id>  (260) 
CHEMBL1909140

>  <standard_relation>  (260) 
=

>  <assay_description>  (260) 
DRUGMATRIX: Dopamine D2L radioligand binding (ligand: [3H] Spiperone)

>  <published_relation>  (260) 
=

>  <standard_value>  (260) 
5866

>  <qudt_units>  (260) 
http://www.openphacts.org/units/Nanomolar

>  <target_tax_id>  (260) 
9606

>  <bao_label>  (260) 
cell membrane format

>  <published_units>  (260) 
uM

>  <pchembl_value>  (260) 
5.23

>  <published_type>  (260) 
IC50

>  <activity_comment>  (260) 
None

$$$$

     RDKit          

 34 38  0  0  0  0  0  0  0  0999 V2000
    0.0000    0.0000    0.0000 C   0  0  0  0  0  0  0  0  0  0  0  0
    0.0000    0.0000    0.0000 O   0  0  0  0  0  0  0  0  0  0  0  0
    0.0000    0.0000    0.0000 C   0  0  0  0  0  0  0  0  0  0  0  0
    0.0000    0.0000    0.0000 C   0  0  0  0  0  0  0  0  0  0  0  0
    0.0000    0.0000    0.0000 C   0  0  0  0  0  0  0  0  0  0  0  0
    0.0000    0.0000    0.0000 C   0  0  0  0  0  0  0  0  0  0  0  0
    0.0000    0.0000    0.0000 C   0  0  0  0  0  0  0  0  0  0  0  0
    0.0000    0.0000    0.0000 C   0  0  0  0  0  0  0  0  0  0  0  0
    0.0000    0.0000    0.0000 N   0  0  0  0  0  0  0  0  0  0  0  0
    0.0000    0.0000    0.0000 C   0  0  0  0  0  0  0  0  0  0  0  0
    0.0000    0.0000    0.0000 C   0  0  0  0  0  0  0  0  0  0  0  0
    0.0000    0.0000    0.0000 C   0  0  0  0  0  0  0  0  0  0  0  0
    0.0000    0.0000    0.0000 C   0  0  0  0  0  0  0  0  0  0  0  0
    0.0000    0.0000    0.0000 C   0  0  0  0  0  0  0  0  0  0  0  0
    0.0000    0.0000    0.0000 N   0  0  0  0  0  0  0  0  0  0  0  0
    0.0000    0.0000    0.0000 C   0  0  0  0  0  0  0  0  0  0  0  0
    0.0000    0.0000    0.0000 N   0  0  0  0  0  0  0  0  0  0  0  0
    0.0000    0.0000    0.0000 C   0  0  0  0  0  0  0  0  0  0  0  0
    0.0000    0.0000    0.0000 C   0  0  0  0  0  0  0  0  0  0  0  0
    0.0000    0.0000    0.0000 C   0  0  0  0  0  0  0  0  0  0  0  0
    0.0000    0.0000    0.0000 C   0  0  0  0  0  0  0  0  0  0  0  0
    0.0000    0.0000    0.0000 C   0  0  0  0  0  0  0  0  0  0  0  0
    0.0000    0.0000    0.0000 C   0  0  0  0  0  0  0  0  0  0  0  0
    0.0000    0.0000    0.0000 N   0  0  0  0  0  0  0  0  0  0  0  0
    0.0000    0.0000    0.0000 C   0  0  0  0  0  0  0  0  0  0  0  0
    0.0000    0.0000    0.0000 C   0  0  0  0  0  0  0  0  0  0  0  0
    0.0000    0.0000    0.0000 C   0  0  0  0  0  0  0  0  0  0  0  0
    0.0000    0.0000    0.0000 C   0  0  0  0  0  0  0  0  0  0  0  0
    0.0000    0.0000    0.0000 C   0  0  0  0  0  0  0  0  0  0  0  0
    0.0000    0.0000    0.0000 F   0  0  0  0  0  0  0  0  0  0  0  0
    0.0000    0.0000    0.0000 C   0  0  0  0  0  0  0  0  0  0  0  0
    0.0000    0.0000    0.0000 C   0  0  0  0  0  0  0  0  0  0  0  0
    0.0000    0.0000    0.0000 C   0  0  0  0  0  0  0  0  0  0  0  0
    0.0000    0.0000    0.0000 C   0  0  0  0  0  0  0  0  0  0  0  0
  1  2  1  0
  2  3  1  0
  3  4  2  0
  4  5  1  0
  5  6  2  0
  6  7  1  0
  7  8  1  0
  8  9  1  0
  9 10  1  0
 10 11  1  0
 11 12  1  0
 12 13  1  0
 13 14  1  0
 12 15  1  0
 15 16  1  0
 16 17  2  0
 17 18  1  0
 18 19  2  0
 19 20  1  0
 20 21  2  0
 21 22  1  0
 22 23  2  0
 23 24  1  0
 24 25  1  0
 25 26  1  0
 26 27  2  0
 27 28  1  0
 28 29  2  0
 29 30  1  0
 29 31  1  0
 31 32  2  0
  6 33  1  0
 33 34  2  0
 34  3  1  0
 14  9  1  0
 24 16  1  0
 23 18  1  0
 32 26  1  0
M  END
>  <pIC50>  (261) 
5.35

>  <ChEMBL_ID>  (261) 
CHEMBL296419

>  <document_journal>  (261) 
None

>  <bao_endpoint>  (261) 
BAO_0000190

>  <potential_duplicate>  (261) 
False

>  <uo_units>  (261) 
UO_0000065

>  <canonical_smiles>  (261) 
COc1ccc(CCN2CCC(CC2)Nc3nc4ccccc4n3Cc5ccc(F)cc5)cc1

>  <parent_molecule_chembl_id>  (261) 
CHEMBL296419

>  <assay_type>  (261) 
B

>  <src_id>  (261) 
15

>  <ligand_efficiency>  (261) 
{u'le': u'0.21', u'bei': u'11.66', u'sei': u'12.63', u'lle': u'-0.35'}

>  <standard_flag>  (261) 
True

>  <molecule_chembl_id>  (261) 
CHEMBL296419

>  <target_organism>  (261) 
Homo sapiens

>  <standard_units>  (261) 
nM

>  <record_id>  (261) 
1539510

>  <document_chembl_id>  (261) 
CHEMBL1909046

>  <bao_format>  (261) 
BAO_0000249

>  <data_validity_description>  (261) 
None

>  <activity_id>  (261) 
7618939

>  <standard_type>  (261) 
IC50

>  <target_chembl_id>  (261) 
CHEMBL217

>  <data_validity_comment>  (261) 
None

>  <published_value>  (261) 
4.521

>  <document_year>  (261) 
None

>  <target_pref_name>  (261) 
Dopamine D2 receptor

>  <assay_chembl_id>  (261) 
CHEMBL1909140

>  <standard_relation>  (261) 
=

>  <assay_description>  (261) 
DRUGMATRIX: Dopamine D2L radioligand binding (ligand: [3H] Spiperone)

>  <published_relation>  (261) 
=

>  <standard_value>  (261) 
4521

>  <qudt_units>  (261) 
http://www.openphacts.org/units/Nanomolar

>  <target_tax_id>  (261) 
9606

>  <bao_label>  (261) 
cell membrane format

>  <published_units>  (261) 
uM

>  <pchembl_value>  (261) 
5.35

>  <published_type>  (261) 
IC50

>  <activity_comment>  (261) 
None

$$$$

     RDKit          

 22 25  0  0  0  0  0  0  0  0999 V2000
    0.0000    0.0000    0.0000 Cl  0  0  0  0  0  0  0  0  0  0  0  0
    0.0000    0.0000    0.0000 C   0  0  0  0  0  0  0  0  0  0  0  0
    0.0000    0.0000    0.0000 C   0  0  0  0  0  0  0  0  0  0  0  0
    0.0000    0.0000    0.0000 C   0  0  0  0  0  0  0  0  0  0  0  0
    0.0000    0.0000    0.0000 C   0  0  0  0  0  0  0  0  0  0  0  0
    0.0000    0.0000    0.0000 O   0  0  0  0  0  0  0  0  0  0  0  0
    0.0000    0.0000    0.0000 C   0  0  0  0  0  0  0  0  0  0  0  0
    0.0000    0.0000    0.0000 C   0  0  0  0  0  0  0  0  0  0  0  0
    0.0000    0.0000    0.0000 C   0  0  0  0  0  0  0  0  0  0  0  0
    0.0000    0.0000    0.0000 C   0  0  0  0  0  0  0  0  0  0  0  0
    0.0000    0.0000    0.0000 C   0  0  0  0  0  0  0  0  0  0  0  0
    0.0000    0.0000    0.0000 C   0  0  0  0  0  0  0  0  0  0  0  0
    0.0000    0.0000    0.0000 N   0  0  0  0  0  0  0  0  0  0  0  0
    0.0000    0.0000    0.0000 C   0  0  0  0  0  0  0  0  0  0  0  0
    0.0000    0.0000    0.0000 N   0  0  0  0  0  0  0  0  0  0  0  0
    0.0000    0.0000    0.0000 C   0  0  0  0  0  0  0  0  0  0  0  0
    0.0000    0.0000    0.0000 C   0  0  0  0  0  0  0  0  0  0  0  0
    0.0000    0.0000    0.0000 N   0  0  0  0  0  0  0  0  0  0  0  0
    0.0000    0.0000    0.0000 C   0  0  0  0  0  0  0  0  0  0  0  0
    0.0000    0.0000    0.0000 C   0  0  0  0  0  0  0  0  0  0  0  0
    0.0000    0.0000    0.0000 C   0  0  0  0  0  0  0  0  0  0  0  0
    0.0000    0.0000    0.0000 C   0  0  0  0  0  0  0  0  0  0  0  0
  1  2  1  0
  2  3  2  0
  3  4  1  0
  4  5  2  0
  5  6  1  0
  6  7  1  0
  7  8  2  0
  8  9  1  0
  9 10  2  0
 10 11  1  0
 11 12  2  0
 12 13  1  0
 13 14  2  0
 14 15  1  0
 15 16  1  0
 16 17  1  0
 17 18  1  0
 18 19  1  0
 19 20  1  0
 14 21  1  0
 21 22  2  0
 22  2  1  0
 21  5  1  0
 12  7  1  0
 20 15  1  0
M  END
>  <pIC50>  (262) 
6.7

>  <ChEMBL_ID>  (262) 
CHEMBL1113

>  <document_journal>  (262) 
None

>  <bao_endpoint>  (262) 
BAO_0000190

>  <potential_duplicate>  (262) 
False

>  <uo_units>  (262) 
UO_0000065

>  <canonical_smiles>  (262) 
Clc1ccc2Oc3ccccc3N=C(N4CCNCC4)c2c1

>  <parent_molecule_chembl_id>  (262) 
CHEMBL1113

>  <assay_type>  (262) 
B

>  <src_id>  (262) 
15

>  <ligand_efficiency>  (262) 
{u'le': u'0.42', u'bei': u'21.35', u'sei': u'18.17', u'lle': u'3.8'}

>  <standard_flag>  (262) 
True

>  <molecule_chembl_id>  (262) 
CHEMBL1113

>  <target_organism>  (262) 
Homo sapiens

>  <standard_units>  (262) 
nM

>  <record_id>  (262) 
1539490

>  <document_chembl_id>  (262) 
CHEMBL1909046

>  <bao_format>  (262) 
BAO_0000249

>  <data_validity_description>  (262) 
None

>  <activity_id>  (262) 
7624109

>  <standard_type>  (262) 
IC50

>  <target_chembl_id>  (262) 
CHEMBL217

>  <data_validity_comment>  (262) 
None

>  <published_value>  (262) 
0.2

>  <document_year>  (262) 
None

>  <target_pref_name>  (262) 
Dopamine D2 receptor

>  <assay_chembl_id>  (262) 
CHEMBL1909140

>  <standard_relation>  (262) 
=

>  <assay_description>  (262) 
DRUGMATRIX: Dopamine D2L radioligand binding (ligand: [3H] Spiperone)

>  <published_relation>  (262) 
=

>  <standard_value>  (262) 
200

>  <qudt_units>  (262) 
http://www.openphacts.org/units/Nanomolar

>  <target_tax_id>  (262) 
9606

>  <bao_label>  (262) 
cell membrane format

>  <published_units>  (262) 
uM

>  <pchembl_value>  (262) 
6.7

>  <published_type>  (262) 
IC50

>  <activity_comment>  (262) 
None

$$$$

     RDKit          

 31 33  0  0  0  0  0  0  0  0999 V2000
    0.0000    0.0000    0.0000 C   0  0  0  0  0  0  0  0  0  0  0  0
    0.0000    0.0000    0.0000 C   0  0  0  0  0  0  0  0  0  0  0  0
    0.0000    0.0000    0.0000 C   0  0  0  0  0  0  0  0  0  0  0  0
    0.0000    0.0000    0.0000 C   0  0  0  0  0  0  0  0  0  0  0  0
    0.0000    0.0000    0.0000 C   0  0  0  0  0  0  0  0  0  0  0  0
    0.0000    0.0000    0.0000 O   0  0  0  0  0  0  0  0  0  0  0  0
    0.0000    0.0000    0.0000 C   0  0  0  0  0  0  0  0  0  0  0  0
    0.0000    0.0000    0.0000 C   0  0  0  0  0  0  0  0  0  0  0  0
    0.0000    0.0000    0.0000 C   0  0  0  0  0  0  0  0  0  0  0  0
    0.0000    0.0000    0.0000 C   0  0  0  0  0  0  0  0  0  0  0  0
    0.0000    0.0000    0.0000 C   0  0  0  0  0  0  0  0  0  0  0  0
    0.0000    0.0000    0.0000 C   0  0  0  0  0  0  0  0  0  0  0  0
    0.0000    0.0000    0.0000 C   0  0  0  0  0  0  0  0  0  0  0  0
    0.0000    0.0000    0.0000 C   0  0  0  0  0  0  0  0  0  0  0  0
    0.0000    0.0000    0.0000 O   0  0  0  0  0  0  0  0  0  0  0  0
    0.0000    0.0000    0.0000 C   0  0  0  0  0  0  0  0  0  0  0  0
    0.0000    0.0000    0.0000 C   0  0  0  0  0  0  0  0  0  0  0  0
    0.0000    0.0000    0.0000 C   0  0  0  0  0  0  0  0  0  0  0  0
    0.0000    0.0000    0.0000 I   0  0  0  0  0  0  0  0  0  0  0  0
    0.0000    0.0000    0.0000 C   0  0  0  0  0  0  0  0  0  0  0  0
    0.0000    0.0000    0.0000 O   0  0  0  0  0  0  0  0  0  0  0  0
    0.0000    0.0000    0.0000 C   0  0  0  0  0  0  0  0  0  0  0  0
    0.0000    0.0000    0.0000 C   0  0  0  0  0  0  0  0  0  0  0  0
    0.0000    0.0000    0.0000 N   0  0  0  0  0  0  0  0  0  0  0  0
    0.0000    0.0000    0.0000 C   0  0  0  0  0  0  0  0  0  0  0  0
    0.0000    0.0000    0.0000 C   0  0  0  0  0  0  0  0  0  0  0  0
    0.0000    0.0000    0.0000 C   0  0  0  0  0  0  0  0  0  0  0  0
    0.0000    0.0000    0.0000 C   0  0  0  0  0  0  0  0  0  0  0  0
    0.0000    0.0000    0.0000 C   0  0  0  0  0  0  0  0  0  0  0  0
    0.0000    0.0000    0.0000 I   0  0  0  0  0  0  0  0  0  0  0  0
    0.0000    0.0000    0.0000 C   0  0  0  0  0  0  0  0  0  0  0  0
  1  2  1  0
  2  3  1  0
  3  4  1  0
  4  5  1  0
  5  6  1  0
  6  7  1  0
  7  8  2  0
  8  9  1  0
  9 10  2  0
 10 11  1  0
 11 12  2  0
 12 13  1  0
 13 14  1  0
 14 15  2  0
 14 16  1  0
 16 17  2  0
 17 18  1  0
 18 19  1  0
 18 20  2  0
 20 21  1  0
 21 22  1  0
 22 23  1  0
 23 24  1  0
 24 25  1  0
 25 26  1  0
 24 27  1  0
 27 28  1  0
 20 29  1  0
 29 30  1  0
 29 31  2  0
 13  5  2  0
 12  7  1  0
 31 16  1  0
M  END
>  <pIC50>  (263) 
4.7

>  <ChEMBL_ID>  (263) 
CHEMBL633

>  <document_journal>  (263) 
None

>  <bao_endpoint>  (263) 
BAO_0000190

>  <potential_duplicate>  (263) 
False

>  <uo_units>  (263) 
UO_0000065

>  <canonical_smiles>  (263) 
CCCCc1oc2ccccc2c1C(=O)c3cc(I)c(OCCN(CC)CC)c(I)c3

>  <parent_molecule_chembl_id>  (263) 
CHEMBL633

>  <assay_type>  (263) 
B

>  <src_id>  (263) 
15

>  <ligand_efficiency>  (263) 
{u'le': u'0.21', u'bei': u'7.28', u'sei': u'11.01', u'lle': u'-2.54'}

>  <standard_flag>  (263) 
True

>  <molecule_chembl_id>  (263) 
CHEMBL633

>  <target_organism>  (263) 
Homo sapiens

>  <standard_units>  (263) 
nM

>  <record_id>  (263) 
1539485

>  <document_chembl_id>  (263) 
CHEMBL1909046

>  <bao_format>  (263) 
BAO_0000249

>  <data_validity_description>  (263) 
None

>  <activity_id>  (263) 
7633598

>  <standard_type>  (263) 
IC50

>  <target_chembl_id>  (263) 
CHEMBL217

>  <data_validity_comment>  (263) 
None

>  <published_value>  (263) 
19.952

>  <document_year>  (263) 
None

>  <target_pref_name>  (263) 
Dopamine D2 receptor

>  <assay_chembl_id>  (263) 
CHEMBL1909140

>  <standard_relation>  (263) 
=

>  <assay_description>  (263) 
DRUGMATRIX: Dopamine D2L radioligand binding (ligand: [3H] Spiperone)

>  <published_relation>  (263) 
=

>  <standard_value>  (263) 
19952

>  <qudt_units>  (263) 
http://www.openphacts.org/units/Nanomolar

>  <target_tax_id>  (263) 
9606

>  <bao_label>  (263) 
cell membrane format

>  <published_units>  (263) 
uM

>  <pchembl_value>  (263) 
4.7

>  <published_type>  (263) 
IC50

>  <activity_comment>  (263) 
None

$$$$

     RDKit          

 42 48  0  0  0  0  0  0  0  0999 V2000
    0.0000    0.0000    0.0000 C   0  0  0  0  0  0  0  0  0  0  0  0
    0.0000    0.0000    0.0000 C   0  0  0  0  0  0  0  0  0  0  0  0
    0.0000    0.0000    0.0000 C   0  0  0  0  0  0  0  0  0  0  0  0
    0.0000    0.0000    0.0000 C   0  0  0  0  0  0  0  0  0  0  0  0
    0.0000    0.0000    0.0000 C   0  0  0  0  0  0  0  0  0  0  0  0
    0.0000    0.0000    0.0000 N   0  0  0  0  0  0  0  0  0  0  0  0
    0.0000    0.0000    0.0000 C   0  0  0  0  0  0  0  0  0  0  0  0
    0.0000    0.0000    0.0000 O   0  0  0  0  0  0  0  0  0  0  0  0
    0.0000    0.0000    0.0000 C   0  0  0  0  0  0  0  0  0  0  0  0
    0.0000    0.0000    0.0000 N   0  0  0  0  0  0  0  0  0  0  0  0
    0.0000    0.0000    0.0000 C   0  0  0  0  0  0  0  0  0  0  0  0
    0.0000    0.0000    0.0000 O   0  0  0  0  0  0  0  0  0  0  0  0
    0.0000    0.0000    0.0000 C   0  0  0  0  0  0  0  0  0  0  0  0
    0.0000    0.0000    0.0000 C   0  0  0  0  0  0  0  0  0  0  0  0
    0.0000    0.0000    0.0000 N   0  0  0  0  0  0  0  0  0  0  0  0
    0.0000    0.0000    0.0000 C   0  0  0  0  0  0  0  0  0  0  0  0
    0.0000    0.0000    0.0000 C   0  0  0  0  0  0  0  0  0  0  0  0
    0.0000    0.0000    0.0000 C   0  0  0  0  0  0  0  0  0  0  0  0
    0.0000    0.0000    0.0000 C   0  0  0  0  0  0  0  0  0  0  0  0
    0.0000    0.0000    0.0000 C   0  0  0  0  0  0  0  0  0  0  0  0
    0.0000    0.0000    0.0000 N   0  0  0  0  0  0  0  0  0  0  0  0
    0.0000    0.0000    0.0000 C   0  0  0  0  0  0  0  0  0  0  0  0
    0.0000    0.0000    0.0000 C   0  0  0  0  0  0  0  0  0  0  0  0
    0.0000    0.0000    0.0000 C   0  0  0  0  0  0  0  0  0  0  0  0
    0.0000    0.0000    0.0000 C   0  0  0  0  0  0  0  0  0  0  0  0
    0.0000    0.0000    0.0000 C   0  0  0  0  0  0  0  0  0  0  0  0
    0.0000    0.0000    0.0000 C   0  0  0  0  0  0  0  0  0  0  0  0
    0.0000    0.0000    0.0000 C   0  0  0  0  0  0  0  0  0  0  0  0
    0.0000    0.0000    0.0000 C   0  0  0  0  0  0  0  0  0  0  0  0
    0.0000    0.0000    0.0000 O   0  0  0  0  0  0  0  0  0  0  0  0
    0.0000    0.0000    0.0000 C   0  0  0  0  0  0  0  0  0  0  0  0
    0.0000    0.0000    0.0000 O   0  0  0  0  0  0  0  0  0  0  0  0
    0.0000    0.0000    0.0000 C   0  0  0  0  0  0  0  0  0  0  0  0
    0.0000    0.0000    0.0000 C   0  0  0  0  0  0  0  0  0  0  0  0
    0.0000    0.0000    0.0000 C   0  0  0  0  0  0  0  0  0  0  0  0
    0.0000    0.0000    0.0000 C   0  0  0  0  0  0  0  0  0  0  0  0
    0.0000    0.0000    0.0000 N   0  0  0  0  0  0  0  0  0  0  0  0
    0.0000    0.0000    0.0000 C   0  0  0  0  0  0  0  0  0  0  0  0
    0.0000    0.0000    0.0000 O   0  0  0  0  0  0  0  0  0  0  0  0
    0.0000    0.0000    0.0000 C   0  0  0  0  0  0  0  0  0  0  0  0
    0.0000    0.0000    0.0000 C   0  0  0  0  0  0  0  0  0  0  0  0
    0.0000    0.0000    0.0000 C   0  0  0  0  0  0  0  0  0  0  0  0
  1  2  1  0
  2  3  1  0
  2  4  1  0
  4  5  1  0
  5  6  1  0
  6  7  1  0
  7  8  2  0
  7  9  1  0
  9 10  1  0
 10 11  1  0
 11 12  2  0
 11 13  1  0
 13 14  1  0
 14 15  1  0
 15 16  1  0
 15 17  1  0
 17 18  1  0
 18 19  1  0
 19 20  2  0
 20 21  1  0
 21 22  1  0
 22 23  2  0
 23 24  1  0
 24 25  2  0
 25 26  1  0
 26 27  1  0
 27 28  2  0
 26 29  2  0
  9 30  1  0
 30 31  1  0
 31 32  1  0
 31 33  1  0
 33 34  1  0
 34 35  1  0
 35 36  1  0
 36 37  1  0
 37 38  1  0
 38 39  2  0
  9 40  1  0
 40 41  1  0
 40 42  1  0
 38  5  1  0
 31  6  1  0
 28 13  1  0
 27 17  1  0
 29 19  1  0
 29 22  1  0
 37 33  1  0
M  END
>  <pIC50>  (264) 
8.71

>  <ChEMBL_ID>  (264) 
CHEMBL1403281

>  <document_journal>  (264) 
None

>  <bao_endpoint>  (264) 
BAO_0000190

>  <potential_duplicate>  (264) 
False

>  <uo_units>  (264) 
UO_0000065

>  <canonical_smiles>  (264) 
CC(C)C[C@@H]1N2C(=O)[C@](NC(=O)[C@H]3CN(C)[C@@H]4Cc5c[nH]c6cccc(C4=C3)c56)(O[C@@]2(O)[C@@H]7CCCN7C1=O)C(C)C

>  <parent_molecule_chembl_id>  (264) 
CHEMBL1403281

>  <assay_type>  (264) 
B

>  <src_id>  (264) 
15

>  <ligand_efficiency>  (264) 
{u'le': u'0.28', u'bei': u'15.13', u'sei': u'7.37', u'lle': u'4.91'}

>  <standard_flag>  (264) 
True

>  <molecule_chembl_id>  (264) 
CHEMBL1403281

>  <target_organism>  (264) 
Homo sapiens

>  <standard_units>  (264) 
nM

>  <record_id>  (264) 
1539470

>  <document_chembl_id>  (264) 
CHEMBL1909046

>  <bao_format>  (264) 
BAO_0000249

>  <data_validity_description>  (264) 
None

>  <activity_id>  (264) 
7634714

>  <standard_type>  (264) 
IC50

>  <target_chembl_id>  (264) 
CHEMBL217

>  <data_validity_comment>  (264) 
None

>  <published_value>  (264) 
0.00195

>  <document_year>  (264) 
None

>  <target_pref_name>  (264) 
Dopamine D2 receptor

>  <assay_chembl_id>  (264) 
CHEMBL1909140

>  <standard_relation>  (264) 
=

>  <assay_description>  (264) 
DRUGMATRIX: Dopamine D2L radioligand binding (ligand: [3H] Spiperone)

>  <published_relation>  (264) 
=

>  <standard_value>  (264) 
1.95

>  <qudt_units>  (264) 
http://www.openphacts.org/units/Nanomolar

>  <target_tax_id>  (264) 
9606

>  <bao_label>  (264) 
cell membrane format

>  <published_units>  (264) 
uM

>  <pchembl_value>  (264) 
8.71

>  <published_type>  (264) 
IC50

>  <activity_comment>  (264) 
None

$$$$

     RDKit          

 21 23  0  0  0  0  0  0  0  0999 V2000
    0.0000    0.0000    0.0000 C   0  0  0  0  0  0  0  0  0  0  0  0
    0.0000    0.0000    0.0000 N   0  0  0  0  0  0  0  0  0  0  0  0
    0.0000    0.0000    0.0000 C   0  0  0  0  0  0  0  0  0  0  0  0
    0.0000    0.0000    0.0000 C   0  0  0  0  0  0  0  0  0  0  0  0
    0.0000    0.0000    0.0000 C   0  0  0  0  0  0  0  0  0  0  0  0
    0.0000    0.0000    0.0000 C   0  0  0  0  0  0  0  0  0  0  0  0
    0.0000    0.0000    0.0000 C   0  0  0  0  0  0  0  0  0  0  0  0
    0.0000    0.0000    0.0000 C   0  0  0  0  0  0  0  0  0  0  0  0
    0.0000    0.0000    0.0000 C   0  0  0  0  0  0  0  0  0  0  0  0
    0.0000    0.0000    0.0000 C   0  0  0  0  0  0  0  0  0  0  0  0
    0.0000    0.0000    0.0000 C   0  0  0  0  0  0  0  0  0  0  0  0
    0.0000    0.0000    0.0000 C   0  0  0  0  0  0  0  0  0  0  0  0
    0.0000    0.0000    0.0000 C   0  0  0  0  0  0  0  0  0  0  0  0
    0.0000    0.0000    0.0000 C   0  0  0  0  0  0  0  0  0  0  0  0
    0.0000    0.0000    0.0000 C   0  0  0  0  0  0  0  0  0  0  0  0
    0.0000    0.0000    0.0000 C   0  0  0  0  0  0  0  0  0  0  0  0
    0.0000    0.0000    0.0000 C   0  0  0  0  0  0  0  0  0  0  0  0
    0.0000    0.0000    0.0000 C   0  0  0  0  0  0  0  0  0  0  0  0
    0.0000    0.0000    0.0000 C   0  0  0  0  0  0  0  0  0  0  0  0
    0.0000    0.0000    0.0000 C   0  0  0  0  0  0  0  0  0  0  0  0
    0.0000    0.0000    0.0000 C   0  0  0  0  0  0  0  0  0  0  0  0
  1  2  1  0
  2  3  1  0
  2  4  1  0
  4  5  1  0
  5  6  1  0
  6  7  2  3
  7  8  1  0
  8  9  2  0
  9 10  1  0
 10 11  2  0
 11 12  1  0
 12 13  2  0
 13 14  1  0
 14 15  1  0
 15 16  1  0
 16 17  2  0
 17 18  1  0
 18 19  2  0
 19 20  1  0
 20 21  2  0
 21  7  1  0
 13  8  1  0
 21 16  1  0
M  END
>  <pIC50>  (265) 
6.0

>  <ChEMBL_ID>  (265) 
CHEMBL629

>  <document_journal>  (265) 
None

>  <bao_endpoint>  (265) 
BAO_0000190

>  <potential_duplicate>  (265) 
False

>  <uo_units>  (265) 
UO_0000065

>  <canonical_smiles>  (265) 
CN(C)CCC=C1c2ccccc2CCc3ccccc13

>  <parent_molecule_chembl_id>  (265) 
CHEMBL629

>  <assay_type>  (265) 
B

>  <src_id>  (265) 
15

>  <ligand_efficiency>  (265) 
{u'le': u'0.39', u'bei': u'21.62', u'sei': u'185.07', u'lle': u'1.23'}

>  <standard_flag>  (265) 
True

>  <molecule_chembl_id>  (265) 
CHEMBL629

>  <target_organism>  (265) 
Homo sapiens

>  <standard_units>  (265) 
nM

>  <record_id>  (265) 
1539487

>  <document_chembl_id>  (265) 
CHEMBL1909046

>  <bao_format>  (265) 
BAO_0000249

>  <data_validity_description>  (265) 
None

>  <activity_id>  (265) 
7637786

>  <standard_type>  (265) 
IC50

>  <target_chembl_id>  (265) 
CHEMBL217

>  <data_validity_comment>  (265) 
None

>  <published_value>  (265) 
1.009

>  <document_year>  (265) 
None

>  <target_pref_name>  (265) 
Dopamine D2 receptor

>  <assay_chembl_id>  (265) 
CHEMBL1909140

>  <standard_relation>  (265) 
=

>  <assay_description>  (265) 
DRUGMATRIX: Dopamine D2L radioligand binding (ligand: [3H] Spiperone)

>  <published_relation>  (265) 
=

>  <standard_value>  (265) 
1009

>  <qudt_units>  (265) 
http://www.openphacts.org/units/Nanomolar

>  <target_tax_id>  (265) 
9606

>  <bao_label>  (265) 
cell membrane format

>  <published_units>  (265) 
uM

>  <pchembl_value>  (265) 
6

>  <published_type>  (265) 
IC50

>  <activity_comment>  (265) 
None

$$$$

     RDKit          

 28 30  0  0  0  0  0  0  0  0999 V2000
    0.0000    0.0000    0.0000 C   0  0  0  0  0  0  0  0  0  0  0  0
    0.0000    0.0000    0.0000 N   0  0  0  0  0  0  0  0  0  0  0  0
    0.0000    0.0000    0.0000 C   0  0  0  0  0  0  0  0  0  0  0  0
    0.0000    0.0000    0.0000 C   0  0  0  0  0  0  0  0  0  0  0  0
    0.0000    0.0000    0.0000 C   0  0  0  0  0  0  0  0  0  0  0  0
    0.0000    0.0000    0.0000 C   0  0  0  0  0  0  0  0  0  0  0  0
    0.0000    0.0000    0.0000 C   0  0  0  0  0  0  0  0  0  0  0  0
    0.0000    0.0000    0.0000 C   0  0  0  0  0  0  0  0  0  0  0  0
    0.0000    0.0000    0.0000 C   0  0  0  0  0  0  0  0  0  0  0  0
    0.0000    0.0000    0.0000 C   0  0  0  0  0  0  0  0  0  0  0  0
    0.0000    0.0000    0.0000 C   0  0  0  0  0  0  0  0  0  0  0  0
    0.0000    0.0000    0.0000 C   0  0  0  0  0  0  0  0  0  0  0  0
    0.0000    0.0000    0.0000 C   0  0  0  0  0  0  0  0  0  0  0  0
    0.0000    0.0000    0.0000 C   0  0  0  0  0  0  0  0  0  0  0  0
    0.0000    0.0000    0.0000 N   0  0  0  0  0  0  0  0  0  0  0  0
    0.0000    0.0000    0.0000 C   0  0  0  0  0  0  0  0  0  0  0  0
    0.0000    0.0000    0.0000 C   0  0  0  0  0  0  0  0  0  0  0  0
    0.0000    0.0000    0.0000 C   0  0  0  0  0  0  0  0  0  0  0  0
    0.0000    0.0000    0.0000 C   0  0  0  0  0  0  0  0  0  0  0  0
    0.0000    0.0000    0.0000 C   0  0  0  0  0  0  0  0  0  0  0  0
    0.0000    0.0000    0.0000 C   0  0  0  0  0  0  0  0  0  0  0  0
    0.0000    0.0000    0.0000 C   0  0  0  0  0  0  0  0  0  0  0  0
    0.0000    0.0000    0.0000 C   0  0  0  0  0  0  0  0  0  0  0  0
    0.0000    0.0000    0.0000 C   0  0  0  0  0  0  0  0  0  0  0  0
    0.0000    0.0000    0.0000 C   0  0  0  0  0  0  0  0  0  0  0  0
    0.0000    0.0000    0.0000 N   0  0  0  0  0  0  0  0  0  0  0  0
    0.0000    0.0000    0.0000 C   0  0  0  0  0  0  0  0  0  0  0  0
    0.0000    0.0000    0.0000 C   0  0  0  0  0  0  0  0  0  0  0  0
  1  2  1  0
  2  3  1  0
  2  4  1  0
  4  5  2  0
  5  6  1  0
  6  7  2  0
  7  8  1  0
  8  9  2  0
  7 10  1  0
 10 11  2  3
 11 12  1  0
 12 13  2  0
 13 14  1  0
 14 15  2  3
 15 16  1  0
 15 17  1  0
 14 18  1  0
 18 19  2  0
 10 20  1  0
 20 21  2  0
 21 22  1  0
 22 23  2  0
 23 24  1  0
 24 25  2  0
 23 26  1  0
 26 27  1  0
 26 28  1  0
  9  4  1  0
 19 11  1  0
 25 20  1  0
M  CHG  1  15   1
M  END
>  <pIC50>  (266) 
5.5

>  <ChEMBL_ID>  (266) 
CHEMBL64894

>  <document_journal>  (266) 
None

>  <bao_endpoint>  (266) 
BAO_0000190

>  <potential_duplicate>  (266) 
False

>  <uo_units>  (266) 
UO_0000065

>  <canonical_smiles>  (266) 
[Cl-].CN(C)c1ccc(cc1)C(=C2C=CC(=[N+](C)C)C=C2)c3ccc(cc3)N(C)C

>  <parent_molecule_chembl_id>  (266) 
CHEMBL459265

>  <assay_type>  (266) 
B

>  <src_id>  (266) 
15

>  <ligand_efficiency>  (266) 
{u'le': u'0.27', u'bei': u'14.76', u'sei': u'57.93', u'lle': u'0.58'}

>  <standard_flag>  (266) 
True

>  <molecule_chembl_id>  (266) 
CHEMBL64894

>  <target_organism>  (266) 
Homo sapiens

>  <standard_units>  (266) 
nM

>  <record_id>  (266) 
1539804

>  <document_chembl_id>  (266) 
CHEMBL1909046

>  <bao_format>  (266) 
BAO_0000249

>  <data_validity_description>  (266) 
None

>  <activity_id>  (266) 
7651190

>  <standard_type>  (266) 
IC50

>  <target_chembl_id>  (266) 
CHEMBL217

>  <data_validity_comment>  (266) 
None

>  <published_value>  (266) 
3.178

>  <document_year>  (266) 
None

>  <target_pref_name>  (266) 
Dopamine D2 receptor

>  <assay_chembl_id>  (266) 
CHEMBL1909140

>  <standard_relation>  (266) 
=

>  <assay_description>  (266) 
DRUGMATRIX: Dopamine D2L radioligand binding (ligand: [3H] Spiperone)

>  <published_relation>  (266) 
=

>  <standard_value>  (266) 
3178

>  <qudt_units>  (266) 
http://www.openphacts.org/units/Nanomolar

>  <target_tax_id>  (266) 
9606

>  <bao_label>  (266) 
cell membrane format

>  <published_units>  (266) 
uM

>  <pchembl_value>  (266) 
5.5

>  <published_type>  (266) 
IC50

>  <activity_comment>  (266) 
None

$$$$

     RDKit          

 24 26  0  0  0  0  0  0  0  0999 V2000
    0.0000    0.0000    0.0000 Cl  0  0  0  0  0  0  0  0  0  0  0  0
    0.0000    0.0000    0.0000 C   0  0  0  0  0  0  0  0  0  0  0  0
    0.0000    0.0000    0.0000 C   0  0  0  0  0  0  0  0  0  0  0  0
    0.0000    0.0000    0.0000 C   0  0  0  0  0  0  0  0  0  0  0  0
    0.0000    0.0000    0.0000 C   0  0  0  0  0  0  0  0  0  0  0  0
    0.0000    0.0000    0.0000 C   0  0  0  0  0  0  0  0  0  0  0  0
    0.0000    0.0000    0.0000 O   0  0  0  0  0  0  0  0  0  0  0  0
    0.0000    0.0000    0.0000 C   0  0  0  0  0  0  0  0  0  0  0  0
    0.0000    0.0000    0.0000 C   0  0  0  0  0  0  0  0  0  0  0  0
    0.0000    0.0000    0.0000 N   0  0  0  0  0  0  0  0  0  0  0  0
    0.0000    0.0000    0.0000 C   0  0  0  0  0  0  0  0  0  0  0  0
    0.0000    0.0000    0.0000 C   0  0  0  0  0  0  0  0  0  0  0  0
    0.0000    0.0000    0.0000 N   0  0  0  0  0  0  0  0  0  0  0  0
    0.0000    0.0000    0.0000 C   0  0  0  0  0  0  0  0  0  0  0  0
    0.0000    0.0000    0.0000 C   0  0  0  0  0  0  0  0  0  0  0  0
    0.0000    0.0000    0.0000 C   0  0  0  0  0  0  0  0  0  0  0  0
    0.0000    0.0000    0.0000 C   0  0  0  0  0  0  0  0  0  0  0  0
    0.0000    0.0000    0.0000 C   0  0  0  0  0  0  0  0  0  0  0  0
    0.0000    0.0000    0.0000 Cl  0  0  0  0  0  0  0  0  0  0  0  0
    0.0000    0.0000    0.0000 C   0  0  0  0  0  0  0  0  0  0  0  0
    0.0000    0.0000    0.0000 C   0  0  0  0  0  0  0  0  0  0  0  0
    0.0000    0.0000    0.0000 Cl  0  0  0  0  0  0  0  0  0  0  0  0
    0.0000    0.0000    0.0000 C   0  0  0  0  0  0  0  0  0  0  0  0
    0.0000    0.0000    0.0000 C   0  0  0  0  0  0  0  0  0  0  0  0
  1  2  1  0
  2  3  2  0
  3  4  1  0
  4  5  2  0
  5  6  1  0
  6  7  1  0
  7  8  1  0
  8  9  1  0
  9 10  1  0
 10 11  1  0
 11 12  2  0
 12 13  1  0
 13 14  2  0
  8 15  1  0
 15 16  2  0
 16 17  1  0
 17 18  2  0
 18 19  1  0
 18 20  1  0
 20 21  2  0
 21 22  1  0
  5 23  1  0
 23 24  2  0
 24  2  1  0
 14 10  1  0
 21 15  1  0
M  END
>  <pIC50>  (267) 
4.89

>  <ChEMBL_ID>  (267) 
CHEMBL808

>  <document_journal>  (267) 
None

>  <bao_endpoint>  (267) 
BAO_0000190

>  <potential_duplicate>  (267) 
False

>  <uo_units>  (267) 
UO_0000065

>  <canonical_smiles>  (267) 
Clc1ccc(COC(Cn2ccnc2)c3ccc(Cl)cc3Cl)cc1

>  <parent_molecule_chembl_id>  (267) 
CHEMBL808

>  <assay_type>  (267) 
B

>  <src_id>  (267) 
15

>  <ligand_efficiency>  (267) 
{u'le': u'0.28', u'bei': u'12.82', u'sei': u'18.09', u'lle': u'-0.09'}

>  <standard_flag>  (267) 
True

>  <molecule_chembl_id>  (267) 
CHEMBL808

>  <target_organism>  (267) 
Homo sapiens

>  <standard_units>  (267) 
nM

>  <record_id>  (267) 
1539724

>  <document_chembl_id>  (267) 
CHEMBL1909046

>  <bao_format>  (267) 
BAO_0000249

>  <data_validity_description>  (267) 
None

>  <activity_id>  (267) 
7651970

>  <standard_type>  (267) 
IC50

>  <target_chembl_id>  (267) 
CHEMBL217

>  <data_validity_comment>  (267) 
None

>  <published_value>  (267) 
12.807

>  <document_year>  (267) 
None

>  <target_pref_name>  (267) 
Dopamine D2 receptor

>  <assay_chembl_id>  (267) 
CHEMBL1909140

>  <standard_relation>  (267) 
=

>  <assay_description>  (267) 
DRUGMATRIX: Dopamine D2L radioligand binding (ligand: [3H] Spiperone)

>  <published_relation>  (267) 
=

>  <standard_value>  (267) 
12807

>  <qudt_units>  (267) 
http://www.openphacts.org/units/Nanomolar

>  <target_tax_id>  (267) 
9606

>  <bao_label>  (267) 
cell membrane format

>  <published_units>  (267) 
uM

>  <pchembl_value>  (267) 
4.89

>  <published_type>  (267) 
IC50

>  <activity_comment>  (267) 
None

$$$$

     RDKit          

 41 47  0  0  0  0  0  0  0  0999 V2000
    0.0000    0.0000    0.0000 C   0  0  0  0  0  0  0  0  0  0  0  0
    0.0000    0.0000    0.0000 C   0  0  0  0  0  0  0  0  0  0  0  0
    0.0000    0.0000    0.0000 C   0  0  0  0  0  0  0  0  0  0  0  0
    0.0000    0.0000    0.0000 C   0  0  0  0  0  0  0  0  0  0  0  0
    0.0000    0.0000    0.0000 N   0  0  0  0  0  0  0  0  0  0  0  0
    0.0000    0.0000    0.0000 C   0  0  0  0  0  0  0  0  0  0  0  0
    0.0000    0.0000    0.0000 O   0  0  0  0  0  0  0  0  0  0  0  0
    0.0000    0.0000    0.0000 C   0  0  0  0  0  0  0  0  0  0  0  0
    0.0000    0.0000    0.0000 N   0  0  0  0  0  0  0  0  0  0  0  0
    0.0000    0.0000    0.0000 C   0  0  0  0  0  0  0  0  0  0  0  0
    0.0000    0.0000    0.0000 O   0  0  0  0  0  0  0  0  0  0  0  0
    0.0000    0.0000    0.0000 C   0  0  0  0  0  0  0  0  0  0  0  0
    0.0000    0.0000    0.0000 C   0  0  0  0  0  0  0  0  0  0  0  0
    0.0000    0.0000    0.0000 N   0  0  0  0  0  0  0  0  0  0  0  0
    0.0000    0.0000    0.0000 C   0  0  0  0  0  0  0  0  0  0  0  0
    0.0000    0.0000    0.0000 C   0  0  0  0  0  0  0  0  0  0  0  0
    0.0000    0.0000    0.0000 C   0  0  0  0  0  0  0  0  0  0  0  0
    0.0000    0.0000    0.0000 C   0  0  0  0  0  0  0  0  0  0  0  0
    0.0000    0.0000    0.0000 C   0  0  0  0  0  0  0  0  0  0  0  0
    0.0000    0.0000    0.0000 N   0  0  0  0  0  0  0  0  0  0  0  0
    0.0000    0.0000    0.0000 C   0  0  0  0  0  0  0  0  0  0  0  0
    0.0000    0.0000    0.0000 C   0  0  0  0  0  0  0  0  0  0  0  0
    0.0000    0.0000    0.0000 C   0  0  0  0  0  0  0  0  0  0  0  0
    0.0000    0.0000    0.0000 C   0  0  0  0  0  0  0  0  0  0  0  0
    0.0000    0.0000    0.0000 C   0  0  0  0  0  0  0  0  0  0  0  0
    0.0000    0.0000    0.0000 C   0  0  0  0  0  0  0  0  0  0  0  0
    0.0000    0.0000    0.0000 C   0  0  0  0  0  0  0  0  0  0  0  0
    0.0000    0.0000    0.0000 C   0  0  0  0  0  0  0  0  0  0  0  0
    0.0000    0.0000    0.0000 O   0  0  0  0  0  0  0  0  0  0  0  0
    0.0000    0.0000    0.0000 C   0  0  0  0  0  0  0  0  0  0  0  0
    0.0000    0.0000    0.0000 O   0  0  0  0  0  0  0  0  0  0  0  0
    0.0000    0.0000    0.0000 C   0  0  0  0  0  0  0  0  0  0  0  0
    0.0000    0.0000    0.0000 C   0  0  0  0  0  0  0  0  0  0  0  0
    0.0000    0.0000    0.0000 C   0  0  0  0  0  0  0  0  0  0  0  0
    0.0000    0.0000    0.0000 C   0  0  0  0  0  0  0  0  0  0  0  0
    0.0000    0.0000    0.0000 N   0  0  0  0  0  0  0  0  0  0  0  0
    0.0000    0.0000    0.0000 C   0  0  0  0  0  0  0  0  0  0  0  0
    0.0000    0.0000    0.0000 O   0  0  0  0  0  0  0  0  0  0  0  0
    0.0000    0.0000    0.0000 C   0  0  0  0  0  0  0  0  0  0  0  0
    0.0000    0.0000    0.0000 C   0  0  0  0  0  0  0  0  0  0  0  0
    0.0000    0.0000    0.0000 C   0  0  0  0  0  0  0  0  0  0  0  0
  1  2  1  0
  2  3  1  0
  2  4  1  0
  4  5  1  0
  5  6  1  0
  6  7  2  0
  6  8  1  0
  8  9  1  0
  9 10  1  0
 10 11  2  0
 10 12  1  0
 12 13  1  0
 13 14  1  0
 14 15  1  0
 14 16  1  0
 16 17  1  0
 17 18  1  0
 18 19  2  0
 19 20  1  0
 20 21  1  0
 21 22  2  0
 22 23  1  0
 23 24  2  0
 24 25  1  0
 25 26  1  0
 26 27  2  0
 25 28  2  0
  8 29  1  0
 29 30  1  0
 30 31  1  0
 30 32  1  0
 32 33  1  0
 33 34  1  0
 34 35  1  0
 35 36  1  0
 36 37  1  0
 37 38  2  0
  8 39  1  0
 39 40  1  0
 39 41  1  0
 37  4  1  0
 30  5  1  0
 27 12  1  0
 26 16  1  0
 28 18  1  0
 28 21  1  0
 36 32  1  0
M  END
>  <pIC50>  (268) 
8.3

>  <ChEMBL_ID>  (268) 
CHEMBL1385840

>  <document_journal>  (268) 
None

>  <bao_endpoint>  (268) 
BAO_0000190

>  <potential_duplicate>  (268) 
False

>  <uo_units>  (268) 
UO_0000065

>  <canonical_smiles>  (268) 
CC(C)[C@@H]1N2C(=O)[C@](NC(=O)[C@H]3CN(C)[C@@H]4Cc5c[nH]c6cccc(C4=C3)c56)(O[C@@]2(O)[C@@H]7CCCN7C1=O)C(C)C

>  <parent_molecule_chembl_id>  (268) 
CHEMBL1385840

>  <assay_type>  (268) 
B

>  <src_id>  (268) 
15

>  <ligand_efficiency>  (268) 
{u'le': u'0.28', u'bei': u'14.77', u'sei': u'7.02', u'lle': u'4.89'}

>  <standard_flag>  (268) 
True

>  <molecule_chembl_id>  (268) 
CHEMBL1385840

>  <target_organism>  (268) 
Homo sapiens

>  <standard_units>  (268) 
nM

>  <record_id>  (268) 
1539735

>  <document_chembl_id>  (268) 
CHEMBL1909046

>  <bao_format>  (268) 
BAO_0000249

>  <data_validity_description>  (268) 
None

>  <activity_id>  (268) 
7662831

>  <standard_type>  (268) 
IC50

>  <target_chembl_id>  (268) 
CHEMBL217

>  <data_validity_comment>  (268) 
None

>  <published_value>  (268) 
0.005032

>  <document_year>  (268) 
None

>  <target_pref_name>  (268) 
Dopamine D2 receptor

>  <assay_chembl_id>  (268) 
CHEMBL1909140

>  <standard_relation>  (268) 
=

>  <assay_description>  (268) 
DRUGMATRIX: Dopamine D2L radioligand binding (ligand: [3H] Spiperone)

>  <published_relation>  (268) 
=

>  <standard_value>  (268) 
5.032

>  <qudt_units>  (268) 
http://www.openphacts.org/units/Nanomolar

>  <target_tax_id>  (268) 
9606

>  <bao_label>  (268) 
cell membrane format

>  <published_units>  (268) 
uM

>  <pchembl_value>  (268) 
8.3

>  <published_type>  (268) 
IC50

>  <activity_comment>  (268) 
None

$$$$

     RDKit          

 30 33  0  0  0  0  0  0  0  0999 V2000
    0.0000    0.0000    0.0000 F   0  0  0  0  0  0  0  0  0  0  0  0
    0.0000    0.0000    0.0000 C   0  0  0  0  0  0  0  0  0  0  0  0
    0.0000    0.0000    0.0000 C   0  0  0  0  0  0  0  0  0  0  0  0
    0.0000    0.0000    0.0000 C   0  0  0  0  0  0  0  0  0  0  0  0
    0.0000    0.0000    0.0000 C   0  0  0  0  0  0  0  0  0  0  0  0
    0.0000    0.0000    0.0000 C   0  0  0  0  0  0  0  0  0  0  0  0
    0.0000    0.0000    0.0000 C   0  0  0  0  0  0  0  0  0  0  0  0
    0.0000    0.0000    0.0000 C   0  0  0  0  0  0  0  0  0  0  0  0
    0.0000    0.0000    0.0000 N   0  0  0  0  0  0  0  0  0  0  0  0
    0.0000    0.0000    0.0000 C   0  0  0  0  0  0  0  0  0  0  0  0
    0.0000    0.0000    0.0000 C   0  0  0  0  0  0  0  0  0  0  0  0
    0.0000    0.0000    0.0000 N   0  0  0  0  0  0  0  0  0  0  0  0
    0.0000    0.0000    0.0000 C   0  0  0  0  0  0  0  0  0  0  0  0
    0.0000    0.0000    0.0000 C   0  0  0  0  0  0  0  0  0  0  0  0
    0.0000    0.0000    0.0000 C   0  0  0  0  0  0  0  0  0  0  0  0
    0.0000    0.0000    0.0000 C   0  0  0  0  0  0  0  0  0  0  0  0
    0.0000    0.0000    0.0000 C   0  0  0  0  0  0  0  0  0  0  0  0
    0.0000    0.0000    0.0000 C   0  0  0  0  0  0  0  0  0  0  0  0
    0.0000    0.0000    0.0000 C   0  0  0  0  0  0  0  0  0  0  0  0
    0.0000    0.0000    0.0000 C   0  0  0  0  0  0  0  0  0  0  0  0
    0.0000    0.0000    0.0000 C   0  0  0  0  0  0  0  0  0  0  0  0
    0.0000    0.0000    0.0000 C   0  0  0  0  0  0  0  0  0  0  0  0
    0.0000    0.0000    0.0000 C   0  0  0  0  0  0  0  0  0  0  0  0
    0.0000    0.0000    0.0000 C   0  0  0  0  0  0  0  0  0  0  0  0
    0.0000    0.0000    0.0000 C   0  0  0  0  0  0  0  0  0  0  0  0
    0.0000    0.0000    0.0000 C   0  0  0  0  0  0  0  0  0  0  0  0
    0.0000    0.0000    0.0000 C   0  0  0  0  0  0  0  0  0  0  0  0
    0.0000    0.0000    0.0000 F   0  0  0  0  0  0  0  0  0  0  0  0
    0.0000    0.0000    0.0000 C   0  0  0  0  0  0  0  0  0  0  0  0
    0.0000    0.0000    0.0000 C   0  0  0  0  0  0  0  0  0  0  0  0
  1  2  1  0
  2  3  2  0
  3  4  1  0
  4  5  2  0
  5  6  1  0
  6  7  2  0
  5  8  1  0
  8  9  1  0
  9 10  1  0
 10 11  1  0
 11 12  1  0
 12 13  1  0
 13 14  1  0
 14 15  2  0
 15 16  1  0
 16 17  2  0
 17 18  1  0
 18 19  2  0
 19 20  1  0
 20 21  2  0
 12 22  1  0
 22 23  1  0
  8 24  1  0
 24 25  2  0
 25 26  1  0
 26 27  2  0
 27 28  1  0
 27 29  1  0
 29 30  2  0
  7  2  1  0
 23  9  1  0
 21 16  1  0
 30 24  1  0
M  END
>  <pIC50>  (269) 
6.45

>  <ChEMBL_ID>  (269) 
CHEMBL30008

>  <document_journal>  (269) 
None

>  <bao_endpoint>  (269) 
BAO_0000190

>  <potential_duplicate>  (269) 
False

>  <uo_units>  (269) 
UO_0000065

>  <canonical_smiles>  (269) 
Fc1ccc(cc1)C(N2CCN(C\C=C\c3ccccc3)CC2)c4ccc(F)cc4

>  <parent_molecule_chembl_id>  (269) 
CHEMBL30008

>  <assay_type>  (269) 
B

>  <src_id>  (269) 
15

>  <ligand_efficiency>  (269) 
{u'le': u'0.29', u'bei': u'15.95', u'sei': u'99.59', u'lle': u'0.51'}

>  <standard_flag>  (269) 
True

>  <molecule_chembl_id>  (269) 
CHEMBL30008

>  <target_organism>  (269) 
Homo sapiens

>  <standard_units>  (269) 
nM

>  <record_id>  (269) 
1539775

>  <document_chembl_id>  (269) 
CHEMBL1909046

>  <bao_format>  (269) 
BAO_0000249

>  <data_validity_description>  (269) 
None

>  <activity_id>  (269) 
7665550

>  <standard_type>  (269) 
IC50

>  <target_chembl_id>  (269) 
CHEMBL217

>  <data_validity_comment>  (269) 
None

>  <published_value>  (269) 
0.352

>  <document_year>  (269) 
None

>  <target_pref_name>  (269) 
Dopamine D2 receptor

>  <assay_chembl_id>  (269) 
CHEMBL1909140

>  <standard_relation>  (269) 
=

>  <assay_description>  (269) 
DRUGMATRIX: Dopamine D2L radioligand binding (ligand: [3H] Spiperone)

>  <published_relation>  (269) 
=

>  <standard_value>  (269) 
352

>  <qudt_units>  (269) 
http://www.openphacts.org/units/Nanomolar

>  <target_tax_id>  (269) 
9606

>  <bao_label>  (269) 
cell membrane format

>  <published_units>  (269) 
uM

>  <pchembl_value>  (269) 
6.45

>  <published_type>  (269) 
IC50

>  <activity_comment>  (269) 
None

$$$$

     RDKit          

 24 27  0  0  0  0  0  0  0  0999 V2000
    0.0000    0.0000    0.0000 C   0  0  0  0  0  0  0  0  0  0  0  0
    0.0000    0.0000    0.0000 C   0  0  0  0  0  0  0  0  0  0  0  0
    0.0000    0.0000    0.0000 C   0  0  0  0  0  0  0  0  0  0  0  0
    0.0000    0.0000    0.0000 O   0  0  0  0  0  0  0  0  0  0  0  0
    0.0000    0.0000    0.0000 N   0  0  0  0  0  0  0  0  0  0  0  0
    0.0000    0.0000    0.0000 C   0  0  0  0  0  0  0  0  0  0  0  0
    0.0000    0.0000    0.0000 O   0  0  0  0  0  0  0  0  0  0  0  0
    0.0000    0.0000    0.0000 C   0  0  0  0  0  0  0  0  0  0  0  0
    0.0000    0.0000    0.0000 C   0  0  0  0  0  0  0  0  0  0  0  0
    0.0000    0.0000    0.0000 N   0  0  0  0  0  0  0  0  0  0  0  0
    0.0000    0.0000    0.0000 C   0  0  0  0  0  0  0  0  0  0  0  0
    0.0000    0.0000    0.0000 C   0  0  0  0  0  0  0  0  0  0  0  0
    0.0000    0.0000    0.0000 C   0  0  0  0  0  0  0  0  0  0  0  0
    0.0000    0.0000    0.0000 C   0  0  0  0  0  0  0  0  0  0  0  0
    0.0000    0.0000    0.0000 C   0  0  0  0  0  0  0  0  0  0  0  0
    0.0000    0.0000    0.0000 N   0  0  0  0  0  0  0  0  0  0  0  0
    0.0000    0.0000    0.0000 C   0  0  0  0  0  0  0  0  0  0  0  0
    0.0000    0.0000    0.0000 C   0  0  0  0  0  0  0  0  0  0  0  0
    0.0000    0.0000    0.0000 C   0  0  0  0  0  0  0  0  0  0  0  0
    0.0000    0.0000    0.0000 C   0  0  0  0  0  0  0  0  0  0  0  0
    0.0000    0.0000    0.0000 C   0  0  0  0  0  0  0  0  0  0  0  0
    0.0000    0.0000    0.0000 C   0  0  0  0  0  0  0  0  0  0  0  0
    0.0000    0.0000    0.0000 C   0  0  0  0  0  0  0  0  0  0  0  0
    0.0000    0.0000    0.0000 C   0  0  0  0  0  0  0  0  0  0  0  0
  1  2  1  0
  2  3  1  0
  3  4  1  0
  2  5  1  0
  5  6  1  0
  6  7  2  0
  6  8  1  0
  8  9  1  0
  9 10  1  0
 10 11  1  0
 10 12  1  0
 12 13  1  0
 13 14  1  0
 14 15  2  0
 15 16  1  0
 16 17  1  0
 17 18  2  0
 18 19  1  0
 19 20  2  0
 20 21  1  0
 21 22  1  0
 22 23  2  0
 21 24  2  0
 23  8  1  0
 22 12  1  0
 24 14  1  0
 24 17  1  0
M  END
>  <pIC50>  (270) 
6.26

>  <ChEMBL_ID>  (270) 
CHEMBL119443

>  <document_journal>  (270) 
None

>  <bao_endpoint>  (270) 
BAO_0000190

>  <potential_duplicate>  (270) 
False

>  <uo_units>  (270) 
UO_0000065

>  <canonical_smiles>  (270) 
C[C@@H](CO)NC(=O)[C@H]1CN(C)[C@@H]2Cc3c[nH]c4cccc(C2=C1)c34

>  <parent_molecule_chembl_id>  (270) 
CHEMBL119443

>  <assay_type>  (270) 
B

>  <src_id>  (270) 
15

>  <ligand_efficiency>  (270) 
{u'le': u'0.36', u'bei': u'19.23', u'sei': u'9.15', u'lle': u'4.72'}

>  <standard_flag>  (270) 
True

>  <molecule_chembl_id>  (270) 
CHEMBL119443

>  <target_organism>  (270) 
Homo sapiens

>  <standard_units>  (270) 
nM

>  <record_id>  (270) 
1539736

>  <document_chembl_id>  (270) 
CHEMBL1909046

>  <bao_format>  (270) 
BAO_0000249

>  <data_validity_description>  (270) 
None

>  <activity_id>  (270) 
7667105

>  <standard_type>  (270) 
IC50

>  <target_chembl_id>  (270) 
CHEMBL217

>  <data_validity_comment>  (270) 
None

>  <published_value>  (270) 
0.552

>  <document_year>  (270) 
None

>  <target_pref_name>  (270) 
Dopamine D2 receptor

>  <assay_chembl_id>  (270) 
CHEMBL1909140

>  <standard_relation>  (270) 
=

>  <assay_description>  (270) 
DRUGMATRIX: Dopamine D2L radioligand binding (ligand: [3H] Spiperone)

>  <published_relation>  (270) 
=

>  <standard_value>  (270) 
552

>  <qudt_units>  (270) 
http://www.openphacts.org/units/Nanomolar

>  <target_tax_id>  (270) 
9606

>  <bao_label>  (270) 
cell membrane format

>  <published_units>  (270) 
uM

>  <pchembl_value>  (270) 
6.26

>  <published_type>  (270) 
IC50

>  <activity_comment>  (270) 
None

$$$$

     RDKit          

 30 33  0  0  0  0  0  0  0  0999 V2000
    0.0000    0.0000    0.0000 O   0  0  0  0  0  0  0  0  0  0  0  0
    0.0000    0.0000    0.0000 C   0  0  0  0  0  0  0  0  0  0  0  0
    0.0000    0.0000    0.0000 C   0  0  0  0  0  0  0  0  0  0  0  0
    0.0000    0.0000    0.0000 N   0  0  0  0  0  0  0  0  0  0  0  0
    0.0000    0.0000    0.0000 C   0  0  0  0  0  0  0  0  0  0  0  0
    0.0000    0.0000    0.0000 C   0  0  0  0  0  0  0  0  0  0  0  0
    0.0000    0.0000    0.0000 N   0  0  0  0  0  0  0  0  0  0  0  0
    0.0000    0.0000    0.0000 C   0  0  0  0  0  0  0  0  0  0  0  0
    0.0000    0.0000    0.0000 C   0  0  0  0  0  0  0  0  0  0  0  0
    0.0000    0.0000    0.0000 C   0  0  0  0  0  0  0  0  0  0  0  0
    0.0000    0.0000    0.0000 N   0  0  0  0  0  0  0  0  0  0  0  0
    0.0000    0.0000    0.0000 C   0  0  0  0  0  0  0  0  0  0  0  0
    0.0000    0.0000    0.0000 C   0  0  0  0  0  0  0  0  0  0  0  0
    0.0000    0.0000    0.0000 C   0  0  0  0  0  0  0  0  0  0  0  0
    0.0000    0.0000    0.0000 C   0  0  0  0  0  0  0  0  0  0  0  0
    0.0000    0.0000    0.0000 C   0  0  0  0  0  0  0  0  0  0  0  0
    0.0000    0.0000    0.0000 C   0  0  0  0  0  0  0  0  0  0  0  0
    0.0000    0.0000    0.0000 S   0  0  0  0  0  0  0  0  0  0  0  0
    0.0000    0.0000    0.0000 C   0  0  0  0  0  0  0  0  0  0  0  0
    0.0000    0.0000    0.0000 C   0  0  0  0  0  0  0  0  0  0  0  0
    0.0000    0.0000    0.0000 C   0  0  0  0  0  0  0  0  0  0  0  0
    0.0000    0.0000    0.0000 C   0  0  0  0  0  0  0  0  0  0  0  0
    0.0000    0.0000    0.0000 C   0  0  0  0  0  0  0  0  0  0  0  0
    0.0000    0.0000    0.0000 C   0  0  0  0  0  0  0  0  0  0  0  0
    0.0000    0.0000    0.0000 C   0  0  0  0  0  0  0  0  0  0  0  0
    0.0000    0.0000    0.0000 F   0  0  0  0  0  0  0  0  0  0  0  0
    0.0000    0.0000    0.0000 F   0  0  0  0  0  0  0  0  0  0  0  0
    0.0000    0.0000    0.0000 F   0  0  0  0  0  0  0  0  0  0  0  0
    0.0000    0.0000    0.0000 C   0  0  0  0  0  0  0  0  0  0  0  0
    0.0000    0.0000    0.0000 C   0  0  0  0  0  0  0  0  0  0  0  0
  1  2  1  0
  2  3  1  0
  3  4  1  0
  4  5  1  0
  5  6  1  0
  6  7  1  0
  7  8  1  0
  8  9  1  0
  9 10  1  0
 10 11  1  0
 11 12  1  0
 12 13  2  0
 13 14  1  0
 14 15  2  0
 15 16  1  0
 16 17  2  0
 17 18  1  0
 18 19  1  0
 19 20  2  0
 20 21  1  0
 21 22  2  0
 22 23  1  0
 23 24  2  0
 22 25  1  0
 25 26  1  0
 25 27  1  0
 25 28  1  0
  7 29  1  0
 29 30  1  0
 30  4  1  0
 24 11  1  0
 17 12  1  0
 24 19  1  0
M  END
>  <pIC50>  (271) 
8.79

>  <ChEMBL_ID>  (271) 
CHEMBL726

>  <document_journal>  (271) 
None

>  <bao_endpoint>  (271) 
BAO_0000190

>  <potential_duplicate>  (271) 
False

>  <uo_units>  (271) 
UO_0000065

>  <canonical_smiles>  (271) 
OCCN1CCN(CCCN2c3ccccc3Sc4ccc(cc24)C(F)(F)F)CC1

>  <parent_molecule_chembl_id>  (271) 
CHEMBL726

>  <assay_type>  (271) 
B

>  <src_id>  (271) 
15

>  <ligand_efficiency>  (271) 
{u'le': u'0.4', u'bei': u'20.09', u'sei': u'15.91', u'lle': u'4.35'}

>  <standard_flag>  (271) 
True

>  <molecule_chembl_id>  (271) 
CHEMBL726

>  <target_organism>  (271) 
Homo sapiens

>  <standard_units>  (271) 
nM

>  <record_id>  (271) 
1539784

>  <document_chembl_id>  (271) 
CHEMBL1909046

>  <bao_format>  (271) 
BAO_0000249

>  <data_validity_description>  (271) 
None

>  <activity_id>  (271) 
7667938

>  <standard_type>  (271) 
IC50

>  <target_chembl_id>  (271) 
CHEMBL217

>  <data_validity_comment>  (271) 
None

>  <published_value>  (271) 
0.001616

>  <document_year>  (271) 
None

>  <target_pref_name>  (271) 
Dopamine D2 receptor

>  <assay_chembl_id>  (271) 
CHEMBL1909140

>  <standard_relation>  (271) 
=

>  <assay_description>  (271) 
DRUGMATRIX: Dopamine D2L radioligand binding (ligand: [3H] Spiperone)

>  <published_relation>  (271) 
=

>  <standard_value>  (271) 
1.616

>  <qudt_units>  (271) 
http://www.openphacts.org/units/Nanomolar

>  <target_tax_id>  (271) 
9606

>  <bao_label>  (271) 
cell membrane format

>  <published_units>  (271) 
uM

>  <pchembl_value>  (271) 
8.79

>  <published_type>  (271) 
IC50

>  <activity_comment>  (271) 
None

$$$$

     RDKit          

 43 50  0  0  0  0  0  0  0  0999 V2000
    0.0000    0.0000    0.0000 C   0  0  0  0  0  0  0  0  0  0  0  0
    0.0000    0.0000    0.0000 N   0  0  0  0  0  0  0  0  0  0  0  0
    0.0000    0.0000    0.0000 C   0  0  0  0  0  0  0  0  0  0  0  0
    0.0000    0.0000    0.0000 C   0  0  0  0  0  0  0  0  0  0  0  0
    0.0000    0.0000    0.0000 C   0  0  0  0  0  0  0  0  0  0  0  0
    0.0000    0.0000    0.0000 C   0  0  0  0  0  0  0  0  0  0  0  0
    0.0000    0.0000    0.0000 C   0  0  0  0  0  0  0  0  0  0  0  0
    0.0000    0.0000    0.0000 C   0  0  0  0  0  0  0  0  0  0  0  0
    0.0000    0.0000    0.0000 C   0  0  0  0  0  0  0  0  0  0  0  0
    0.0000    0.0000    0.0000 C   0  0  0  0  0  0  0  0  0  0  0  0
    0.0000    0.0000    0.0000 N   0  0  0  0  0  0  0  0  0  0  0  0
    0.0000    0.0000    0.0000 C   0  0  0  0  0  0  0  0  0  0  0  0
    0.0000    0.0000    0.0000 C   0  0  0  0  0  0  0  0  0  0  0  0
    0.0000    0.0000    0.0000 C   0  0  0  0  0  0  0  0  0  0  0  0
    0.0000    0.0000    0.0000 C   0  0  0  0  0  0  0  0  0  0  0  0
    0.0000    0.0000    0.0000 C   0  0  0  0  0  0  0  0  0  0  0  0
    0.0000    0.0000    0.0000 C   0  0  0  0  0  0  0  0  0  0  0  0
    0.0000    0.0000    0.0000 C   0  0  0  0  0  0  0  0  0  0  0  0
    0.0000    0.0000    0.0000 O   0  0  0  0  0  0  0  0  0  0  0  0
    0.0000    0.0000    0.0000 N   0  0  0  0  0  0  0  0  0  0  0  0
    0.0000    0.0000    0.0000 C   0  0  0  0  0  0  0  0  0  0  0  0
    0.0000    0.0000    0.0000 C   0  0  0  0  0  0  0  0  0  0  0  0
    0.0000    0.0000    0.0000 O   0  0  0  0  0  0  0  0  0  0  0  0
    0.0000    0.0000    0.0000 C   0  0  0  0  0  0  0  0  0  0  0  0
    0.0000    0.0000    0.0000 O   0  0  0  0  0  0  0  0  0  0  0  0
    0.0000    0.0000    0.0000 C   0  0  0  0  0  0  0  0  0  0  0  0
    0.0000    0.0000    0.0000 C   0  0  0  0  0  0  0  0  0  0  0  0
    0.0000    0.0000    0.0000 C   0  0  0  0  0  0  0  0  0  0  0  0
    0.0000    0.0000    0.0000 C   0  0  0  0  0  0  0  0  0  0  0  0
    0.0000    0.0000    0.0000 N   0  0  0  0  0  0  0  0  0  0  0  0
    0.0000    0.0000    0.0000 C   0  0  0  0  0  0  0  0  0  0  0  0
    0.0000    0.0000    0.0000 O   0  0  0  0  0  0  0  0  0  0  0  0
    0.0000    0.0000    0.0000 C   0  0  0  0  0  0  0  0  0  0  0  0
    0.0000    0.0000    0.0000 C   0  0  0  0  0  0  0  0  0  0  0  0
    0.0000    0.0000    0.0000 C   0  0  0  0  0  0  0  0  0  0  0  0
    0.0000    0.0000    0.0000 C   0  0  0  0  0  0  0  0  0  0  0  0
    0.0000    0.0000    0.0000 C   0  0  0  0  0  0  0  0  0  0  0  0
    0.0000    0.0000    0.0000 C   0  0  0  0  0  0  0  0  0  0  0  0
    0.0000    0.0000    0.0000 C   0  0  0  0  0  0  0  0  0  0  0  0
    0.0000    0.0000    0.0000 C   0  0  0  0  0  0  0  0  0  0  0  0
    0.0000    0.0000    0.0000 N   0  0  0  0  0  0  0  0  0  0  0  0
    0.0000    0.0000    0.0000 C   0  0  0  0  0  0  0  0  0  0  0  0
    0.0000    0.0000    0.0000 O   0  0  0  0  0  0  0  0  0  0  0  0
  1  2  1  0
  2  3  1  0
  3  4  1  0
  4  5  1  0
  5  6  2  0
  6  7  1  0
  7  8  1  0
  8  9  1  0
  9 10  2  0
 10 11  1  0
 11 12  1  0
 12 13  2  0
 13 14  1  0
 14 15  2  0
 15 16  1  0
 16 17  2  0
  4 18  1  0
 18 19  2  0
 18 20  1  0
 20 21  1  0
 21 22  1  0
 21 23  1  0
 23 24  1  0
 24 25  1  0
 24 26  1  0
 26 27  1  0
 27 28  1  0
 28 29  1  0
 29 30  1  0
 30 31  1  0
 31 32  2  0
 31 33  1  0
 33 34  1  0
 34 35  1  0
 35 36  2  0
 36 37  1  0
 37 38  2  0
 38 39  1  0
 39 40  2  0
 33 41  1  0
 41 42  1  0
 42 43  2  0
  7  2  1  0
 16  6  1  0
 17  9  1  0
 17 12  1  0
 42 21  1  0
 41 24  1  0
 30 26  1  0
 40 35  1  0
M  END
>  <pIC50>  (272) 
8.37

>  <ChEMBL_ID>  (272) 
CHEMBL442

>  <document_journal>  (272) 
None

>  <bao_endpoint>  (272) 
BAO_0000190

>  <potential_duplicate>  (272) 
False

>  <uo_units>  (272) 
UO_0000065

>  <canonical_smiles>  (272) 
CN1C[C@@H](C=C2[C@H]1Cc3c[nH]c4cccc2c34)C(=O)N[C@]5(C)O[C@@]6(O)[C@@H]7CCCN7C(=O)[C@H](Cc8ccccc8)N6C5=O

>  <parent_molecule_chembl_id>  (272) 
CHEMBL442

>  <assay_type>  (272) 
B

>  <src_id>  (272) 
15

>  <ligand_efficiency>  (272) 
{u'le': u'0.27', u'bei': u'14.38', u'sei': u'7.08', u'lle': u'5.35'}

>  <standard_flag>  (272) 
True

>  <molecule_chembl_id>  (272) 
CHEMBL442

>  <target_organism>  (272) 
Homo sapiens

>  <standard_units>  (272) 
nM

>  <record_id>  (272) 
1539737

>  <document_chembl_id>  (272) 
CHEMBL1909046

>  <bao_format>  (272) 
BAO_0000249

>  <data_validity_description>  (272) 
None

>  <activity_id>  (272) 
7671399

>  <standard_type>  (272) 
IC50

>  <target_chembl_id>  (272) 
CHEMBL217

>  <data_validity_comment>  (272) 
None

>  <published_value>  (272) 
0.0043

>  <document_year>  (272) 
None

>  <target_pref_name>  (272) 
Dopamine D2 receptor

>  <assay_chembl_id>  (272) 
CHEMBL1909140

>  <standard_relation>  (272) 
=

>  <assay_description>  (272) 
DRUGMATRIX: Dopamine D2L radioligand binding (ligand: [3H] Spiperone)

>  <published_relation>  (272) 
=

>  <standard_value>  (272) 
4.3

>  <qudt_units>  (272) 
http://www.openphacts.org/units/Nanomolar

>  <target_tax_id>  (272) 
9606

>  <bao_label>  (272) 
cell membrane format

>  <published_units>  (272) 
uM

>  <pchembl_value>  (272) 
8.37

>  <published_type>  (272) 
IC50

>  <activity_comment>  (272) 
None

$$$$

     RDKit          

 28 31  0  0  0  0  0  0  0  0999 V2000
    0.0000    0.0000    0.0000 F   0  0  0  0  0  0  0  0  0  0  0  0
    0.0000    0.0000    0.0000 C   0  0  0  0  0  0  0  0  0  0  0  0
    0.0000    0.0000    0.0000 C   0  0  0  0  0  0  0  0  0  0  0  0
    0.0000    0.0000    0.0000 C   0  0  0  0  0  0  0  0  0  0  0  0
    0.0000    0.0000    0.0000 C   0  0  0  0  0  0  0  0  0  0  0  0
    0.0000    0.0000    0.0000 C   0  0  0  0  0  0  0  0  0  0  0  0
    0.0000    0.0000    0.0000 C   0  0  0  0  0  0  0  0  0  0  0  0
    0.0000    0.0000    0.0000 C   0  0  0  0  0  0  0  0  0  0  0  0
    0.0000    0.0000    0.0000 O   0  0  0  0  0  0  0  0  0  0  0  0
    0.0000    0.0000    0.0000 C   0  0  0  0  0  0  0  0  0  0  0  0
    0.0000    0.0000    0.0000 C   0  0  0  0  0  0  0  0  0  0  0  0
    0.0000    0.0000    0.0000 C   0  0  0  0  0  0  0  0  0  0  0  0
    0.0000    0.0000    0.0000 N   0  0  0  0  0  0  0  0  0  0  0  0
    0.0000    0.0000    0.0000 C   0  0  0  0  0  0  0  0  0  0  0  0
    0.0000    0.0000    0.0000 C   0  0  0  0  0  0  0  0  0  0  0  0
    0.0000    0.0000    0.0000 C   0  0  0  0  0  0  0  0  0  0  0  0
    0.0000    0.0000    0.0000 C   0  0  0  0  0  0  0  0  0  0  0  0
    0.0000    0.0000    0.0000 C   0  0  0  0  0  0  0  0  0  0  0  0
    0.0000    0.0000    0.0000 N   0  0  0  0  0  0  0  0  0  0  0  0
    0.0000    0.0000    0.0000 C   0  0  0  0  0  0  0  0  0  0  0  0
    0.0000    0.0000    0.0000 O   0  0  0  0  0  0  0  0  0  0  0  0
    0.0000    0.0000    0.0000 N   0  0  0  0  0  0  0  0  0  0  0  0
    0.0000    0.0000    0.0000 C   0  0  0  0  0  0  0  0  0  0  0  0
    0.0000    0.0000    0.0000 C   0  0  0  0  0  0  0  0  0  0  0  0
    0.0000    0.0000    0.0000 C   0  0  0  0  0  0  0  0  0  0  0  0
    0.0000    0.0000    0.0000 C   0  0  0  0  0  0  0  0  0  0  0  0
    0.0000    0.0000    0.0000 C   0  0  0  0  0  0  0  0  0  0  0  0
    0.0000    0.0000    0.0000 C   0  0  0  0  0  0  0  0  0  0  0  0
  1  2  1  0
  2  3  2  0
  3  4  1  0
  4  5  2  0
  5  6  1  0
  6  7  2  0
  5  8  1  0
  8  9  2  0
  8 10  1  0
 10 11  1  0
 11 12  1  0
 12 13  1  0
 13 14  1  0
 14 15  1  0
 15 16  1  0
 16 17  2  0
 17 18  1  0
 16 19  1  0
 19 20  1  0
 20 21  2  0
 20 22  1  0
 22 23  1  0
 23 24  2  0
 24 25  1  0
 25 26  2  0
 26 27  1  0
 27 28  2  0
  7  2  1  0
 18 13  1  0
 28 19  1  0
 28 23  1  0
M  END
>  <pIC50>  (273) 
8.62

>  <ChEMBL_ID>  (273) 
CHEMBL1108

>  <document_journal>  (273) 
None

>  <bao_endpoint>  (273) 
BAO_0000190

>  <potential_duplicate>  (273) 
False

>  <uo_units>  (273) 
UO_0000065

>  <canonical_smiles>  (273) 
Fc1ccc(cc1)C(=O)CCCN2CCC(=CC2)N3C(=O)Nc4ccccc34

>  <parent_molecule_chembl_id>  (273) 
CHEMBL1108

>  <assay_type>  (273) 
B

>  <src_id>  (273) 
15

>  <ligand_efficiency>  (273) 
{u'le': u'0.42', u'bei': u'22.71', u'sei': u'16.37', u'lle': u'5.57'}

>  <standard_flag>  (273) 
True

>  <molecule_chembl_id>  (273) 
CHEMBL1108

>  <target_organism>  (273) 
Homo sapiens

>  <standard_units>  (273) 
nM

>  <record_id>  (273) 
1539721

>  <document_chembl_id>  (273) 
CHEMBL1909046

>  <bao_format>  (273) 
BAO_0000249

>  <data_validity_description>  (273) 
None

>  <activity_id>  (273) 
7673299

>  <standard_type>  (273) 
IC50

>  <target_chembl_id>  (273) 
CHEMBL217

>  <data_validity_comment>  (273) 
None

>  <published_value>  (273) 
0.002407

>  <document_year>  (273) 
None

>  <target_pref_name>  (273) 
Dopamine D2 receptor

>  <assay_chembl_id>  (273) 
CHEMBL1909140

>  <standard_relation>  (273) 
=

>  <assay_description>  (273) 
DRUGMATRIX: Dopamine D2L radioligand binding (ligand: [3H] Spiperone)

>  <published_relation>  (273) 
=

>  <standard_value>  (273) 
2.407

>  <qudt_units>  (273) 
http://www.openphacts.org/units/Nanomolar

>  <target_tax_id>  (273) 
9606

>  <bao_label>  (273) 
cell membrane format

>  <published_units>  (273) 
uM

>  <pchembl_value>  (273) 
8.62

>  <published_type>  (273) 
IC50

>  <activity_comment>  (273) 
None

$$$$

     RDKit          

 24 26  0  0  0  0  0  0  0  0999 V2000
    0.0000    0.0000    0.0000 C   0  0  0  0  0  0  0  0  0  0  0  0
    0.0000    0.0000    0.0000 N   0  0  0  0  0  0  0  0  0  0  0  0
    0.0000    0.0000    0.0000 C   0  0  0  0  0  0  0  0  0  0  0  0
    0.0000    0.0000    0.0000 C   0  0  0  0  0  0  0  0  0  0  0  0
    0.0000    0.0000    0.0000 C   0  0  0  0  0  0  0  0  0  0  0  0
    0.0000    0.0000    0.0000 C   0  0  0  0  0  0  0  0  0  0  0  0
    0.0000    0.0000    0.0000 C   0  0  0  0  0  0  0  0  0  0  0  0
    0.0000    0.0000    0.0000 C   0  0  0  0  0  0  0  0  0  0  0  0
    0.0000    0.0000    0.0000 O   0  0  0  0  0  0  0  0  0  0  0  0
    0.0000    0.0000    0.0000 C   0  0  0  0  0  0  0  0  0  0  0  0
    0.0000    0.0000    0.0000 C   0  0  0  0  0  0  0  0  0  0  0  0
    0.0000    0.0000    0.0000 C   0  0  0  0  0  0  0  0  0  0  0  0
    0.0000    0.0000    0.0000 C   0  0  0  0  0  0  0  0  0  0  0  0
    0.0000    0.0000    0.0000 C   0  0  0  0  0  0  0  0  0  0  0  0
    0.0000    0.0000    0.0000 C   0  0  0  0  0  0  0  0  0  0  0  0
    0.0000    0.0000    0.0000 C   0  0  0  0  0  0  0  0  0  0  0  0
    0.0000    0.0000    0.0000 C   0  0  0  0  0  0  0  0  0  0  0  0
    0.0000    0.0000    0.0000 C   0  0  0  0  0  0  0  0  0  0  0  0
    0.0000    0.0000    0.0000 C   0  0  0  0  0  0  0  0  0  0  0  0
    0.0000    0.0000    0.0000 C   0  0  0  0  0  0  0  0  0  0  0  0
    0.0000    0.0000    0.0000 C   0  0  0  0  0  0  0  0  0  0  0  0
    0.0000    0.0000    0.0000 Cl  0  0  0  0  0  0  0  0  0  0  0  0
    0.0000    0.0000    0.0000 C   0  0  0  0  0  0  0  0  0  0  0  0
    0.0000    0.0000    0.0000 C   0  0  0  0  0  0  0  0  0  0  0  0
  1  2  1  0
  2  3  1  0
  3  4  1  0
  4  5  1  0
  5  6  1  0
  6  7  1  0
  7  8  1  0
  8  9  1  0
  9 10  1  0
 10 11  1  0
 10 12  1  0
 12 13  2  0
 13 14  1  0
 14 15  2  0
 15 16  1  0
 16 17  2  0
 10 18  1  0
 18 19  2  0
 19 20  1  0
 20 21  2  0
 21 22  1  0
 21 23  1  0
 23 24  2  0
  6  2  1  0
 17 12  1  0
 24 18  1  0
M  END
>  <pIC50>  (274) 
6.87

>  <ChEMBL_ID>  (274) 
CHEMBL1626

>  <document_journal>  (274) 
None

>  <bao_endpoint>  (274) 
BAO_0000190

>  <potential_duplicate>  (274) 
False

>  <uo_units>  (274) 
UO_0000065

>  <canonical_smiles>  (274) 
CN1CCC[C@@H]1CCO[C@](C)(c2ccccc2)c3ccc(Cl)cc3

>  <parent_molecule_chembl_id>  (274) 
CHEMBL1626

>  <assay_type>  (274) 
B

>  <src_id>  (274) 
15

>  <ligand_efficiency>  (274) 
{u'le': u'0.39', u'bei': u'19.97', u'sei': u'55.06', u'lle': u'2.06'}

>  <standard_flag>  (274) 
True

>  <molecule_chembl_id>  (274) 
CHEMBL1626

>  <target_organism>  (274) 
Homo sapiens

>  <standard_units>  (274) 
nM

>  <record_id>  (274) 
1539632

>  <document_chembl_id>  (274) 
CHEMBL1909046

>  <bao_format>  (274) 
BAO_0000249

>  <data_validity_description>  (274) 
None

>  <activity_id>  (274) 
7680224

>  <standard_type>  (274) 
IC50

>  <target_chembl_id>  (274) 
CHEMBL217

>  <data_validity_comment>  (274) 
None

>  <published_value>  (274) 
0.136

>  <document_year>  (274) 
None

>  <target_pref_name>  (274) 
Dopamine D2 receptor

>  <assay_chembl_id>  (274) 
CHEMBL1909140

>  <standard_relation>  (274) 
=

>  <assay_description>  (274) 
DRUGMATRIX: Dopamine D2L radioligand binding (ligand: [3H] Spiperone)

>  <published_relation>  (274) 
=

>  <standard_value>  (274) 
136

>  <qudt_units>  (274) 
http://www.openphacts.org/units/Nanomolar

>  <target_tax_id>  (274) 
9606

>  <bao_label>  (274) 
cell membrane format

>  <published_units>  (274) 
uM

>  <pchembl_value>  (274) 
6.87

>  <published_type>  (274) 
IC50

>  <activity_comment>  (274) 
None

$$$$

     RDKit          

 23 25  0  0  0  0  0  0  0  0999 V2000
    0.0000    0.0000    0.0000 O   0  0  0  0  0  0  0  0  0  0  0  0
    0.0000    0.0000    0.0000 C   0  0  0  0  0  0  0  0  0  0  0  0
    0.0000    0.0000    0.0000 C   0  0  0  0  0  0  0  0  0  0  0  0
    0.0000    0.0000    0.0000 C   0  0  0  0  0  0  0  0  0  0  0  0
    0.0000    0.0000    0.0000 C   0  0  0  0  0  0  0  0  0  0  0  0
    0.0000    0.0000    0.0000 N   0  0  0  0  0  0  0  0  0  0  0  0
    0.0000    0.0000    0.0000 C   0  0  0  0  0  0  0  0  0  0  0  0
    0.0000    0.0000    0.0000 C   0  0  0  0  0  0  0  0  0  0  0  0
    0.0000    0.0000    0.0000 C   0  0  0  0  0  0  0  0  0  0  0  0
    0.0000    0.0000    0.0000 C   0  0  0  0  0  0  0  0  0  0  0  0
    0.0000    0.0000    0.0000 C   0  0  0  0  0  0  0  0  0  0  0  0
    0.0000    0.0000    0.0000 C   0  0  0  0  0  0  0  0  0  0  0  0
    0.0000    0.0000    0.0000 C   0  0  0  0  0  0  0  0  0  0  0  0
    0.0000    0.0000    0.0000 C   0  0  0  0  0  0  0  0  0  0  0  0
    0.0000    0.0000    0.0000 C   0  0  0  0  0  0  0  0  0  0  0  0
    0.0000    0.0000    0.0000 C   0  0  0  0  0  0  0  0  0  0  0  0
    0.0000    0.0000    0.0000 C   0  0  0  0  0  0  0  0  0  0  0  0
    0.0000    0.0000    0.0000 C   0  0  0  0  0  0  0  0  0  0  0  0
    0.0000    0.0000    0.0000 C   0  0  0  0  0  0  0  0  0  0  0  0
    0.0000    0.0000    0.0000 C   0  0  0  0  0  0  0  0  0  0  0  0
    0.0000    0.0000    0.0000 C   0  0  0  0  0  0  0  0  0  0  0  0
    0.0000    0.0000    0.0000 C   0  0  0  0  0  0  0  0  0  0  0  0
    0.0000    0.0000    0.0000 C   0  0  0  0  0  0  0  0  0  0  0  0
  1  2  1  0
  2  3  1  0
  3  4  1  0
  4  5  1  0
  5  6  1  0
  6  7  1  0
  7  8  1  0
  8  9  1  0
  9 10  1  0
 10 11  1  0
  2 12  1  0
 12 13  2  0
 13 14  1  0
 14 15  2  0
 15 16  1  0
 16 17  2  0
  2 18  1  0
 18 19  2  0
 19 20  1  0
 20 21  2  0
 21 22  1  0
 22 23  2  0
 11  6  1  0
 17 12  1  0
 23 18  1  0
M  END
>  <pIC50>  (275) 
5.48

>  <ChEMBL_ID>  (275) 
CHEMBL936

>  <document_journal>  (275) 
None

>  <bao_endpoint>  (275) 
BAO_0000190

>  <potential_duplicate>  (275) 
False

>  <uo_units>  (275) 
UO_0000065

>  <canonical_smiles>  (275) 
OC(CCCN1CCCCC1)(c2ccccc2)c3ccccc3

>  <parent_molecule_chembl_id>  (275) 
CHEMBL936

>  <assay_type>  (275) 
B

>  <src_id>  (275) 
15

>  <ligand_efficiency>  (275) 
{u'le': u'0.33', u'bei': u'17.72', u'sei': u'23.36', u'lle': u'1.09'}

>  <standard_flag>  (275) 
True

>  <molecule_chembl_id>  (275) 
CHEMBL936

>  <target_organism>  (275) 
Homo sapiens

>  <standard_units>  (275) 
nM

>  <record_id>  (275) 
1539707

>  <document_chembl_id>  (275) 
CHEMBL1909046

>  <bao_format>  (275) 
BAO_0000249

>  <data_validity_description>  (275) 
None

>  <activity_id>  (275) 
7683641

>  <standard_type>  (275) 
IC50

>  <target_chembl_id>  (275) 
CHEMBL217

>  <data_validity_comment>  (275) 
None

>  <published_value>  (275) 
3.29

>  <document_year>  (275) 
None

>  <target_pref_name>  (275) 
Dopamine D2 receptor

>  <assay_chembl_id>  (275) 
CHEMBL1909140

>  <standard_relation>  (275) 
=

>  <assay_description>  (275) 
DRUGMATRIX: Dopamine D2L radioligand binding (ligand: [3H] Spiperone)

>  <published_relation>  (275) 
=

>  <standard_value>  (275) 
3290

>  <qudt_units>  (275) 
http://www.openphacts.org/units/Nanomolar

>  <target_tax_id>  (275) 
9606

>  <bao_label>  (275) 
cell membrane format

>  <published_units>  (275) 
uM

>  <pchembl_value>  (275) 
5.48

>  <published_type>  (275) 
IC50

>  <activity_comment>  (275) 
None

$$$$

     RDKit          

 45 52  0  0  0  0  0  0  0  0999 V2000
    0.0000    0.0000    0.0000 C   0  0  0  0  0  0  0  0  0  0  0  0
    0.0000    0.0000    0.0000 C   0  0  0  0  0  0  0  0  0  0  0  0
    0.0000    0.0000    0.0000 C   0  0  0  0  0  0  0  0  0  0  0  0
    0.0000    0.0000    0.0000 C   0  0  0  0  0  0  0  0  0  0  0  0
    0.0000    0.0000    0.0000 N   0  0  0  0  0  0  0  0  0  0  0  0
    0.0000    0.0000    0.0000 C   0  0  0  0  0  0  0  0  0  0  0  0
    0.0000    0.0000    0.0000 O   0  0  0  0  0  0  0  0  0  0  0  0
    0.0000    0.0000    0.0000 C   0  0  0  0  0  0  0  0  0  0  0  0
    0.0000    0.0000    0.0000 C   0  0  0  0  0  0  0  0  0  0  0  0
    0.0000    0.0000    0.0000 C   0  0  0  0  0  0  0  0  0  0  0  0
    0.0000    0.0000    0.0000 C   0  0  0  0  0  0  0  0  0  0  0  0
    0.0000    0.0000    0.0000 C   0  0  0  0  0  0  0  0  0  0  0  0
    0.0000    0.0000    0.0000 C   0  0  0  0  0  0  0  0  0  0  0  0
    0.0000    0.0000    0.0000 C   0  0  0  0  0  0  0  0  0  0  0  0
    0.0000    0.0000    0.0000 N   0  0  0  0  0  0  0  0  0  0  0  0
    0.0000    0.0000    0.0000 C   0  0  0  0  0  0  0  0  0  0  0  0
    0.0000    0.0000    0.0000 C   0  0  0  0  0  0  0  0  0  0  0  0
    0.0000    0.0000    0.0000 C   0  0  0  0  0  0  0  0  0  0  0  0
    0.0000    0.0000    0.0000 C   0  0  0  0  0  0  0  0  0  0  0  0
    0.0000    0.0000    0.0000 C   0  0  0  0  0  0  0  0  0  0  0  0
    0.0000    0.0000    0.0000 C   0  0  0  0  0  0  0  0  0  0  0  0
    0.0000    0.0000    0.0000 N   0  0  0  0  0  0  0  0  0  0  0  0
    0.0000    0.0000    0.0000 C   0  0  0  0  0  0  0  0  0  0  0  0
    0.0000    0.0000    0.0000 C   0  0  0  0  0  0  0  0  0  0  0  0
    0.0000    0.0000    0.0000 O   0  0  0  0  0  0  0  0  0  0  0  0
    0.0000    0.0000    0.0000 C   0  0  0  0  0  0  0  0  0  0  0  0
    0.0000    0.0000    0.0000 O   0  0  0  0  0  0  0  0  0  0  0  0
    0.0000    0.0000    0.0000 C   0  0  0  0  0  0  0  0  0  0  0  0
    0.0000    0.0000    0.0000 C   0  0  0  0  0  0  0  0  0  0  0  0
    0.0000    0.0000    0.0000 C   0  0  0  0  0  0  0  0  0  0  0  0
    0.0000    0.0000    0.0000 C   0  0  0  0  0  0  0  0  0  0  0  0
    0.0000    0.0000    0.0000 N   0  0  0  0  0  0  0  0  0  0  0  0
    0.0000    0.0000    0.0000 C   0  0  0  0  0  0  0  0  0  0  0  0
    0.0000    0.0000    0.0000 O   0  0  0  0  0  0  0  0  0  0  0  0
    0.0000    0.0000    0.0000 C   0  0  0  0  0  0  0  0  0  0  0  0
    0.0000    0.0000    0.0000 C   0  0  0  0  0  0  0  0  0  0  0  0
    0.0000    0.0000    0.0000 C   0  0  0  0  0  0  0  0  0  0  0  0
    0.0000    0.0000    0.0000 C   0  0  0  0  0  0  0  0  0  0  0  0
    0.0000    0.0000    0.0000 C   0  0  0  0  0  0  0  0  0  0  0  0
    0.0000    0.0000    0.0000 C   0  0  0  0  0  0  0  0  0  0  0  0
    0.0000    0.0000    0.0000 C   0  0  0  0  0  0  0  0  0  0  0  0
    0.0000    0.0000    0.0000 C   0  0  0  0  0  0  0  0  0  0  0  0
    0.0000    0.0000    0.0000 N   0  0  0  0  0  0  0  0  0  0  0  0
    0.0000    0.0000    0.0000 C   0  0  0  0  0  0  0  0  0  0  0  0
    0.0000    0.0000    0.0000 O   0  0  0  0  0  0  0  0  0  0  0  0
  1  2  1  0
  2  3  1  0
  2  4  1  0
  4  5  1  0
  5  6  1  0
  6  7  2  0
  6  8  1  0
  8  9  1  0
  9 10  1  0
 10 11  1  0
 11 12  1  0
 12 13  1  0
 13 14  2  0
 14 15  1  0
 15 16  1  0
 16 17  2  0
 17 18  1  0
 18 19  2  0
 19 20  1  0
 20 21  2  0
 11 22  1  0
 22 23  1  0
 22 24  1  0
  4 25  1  0
 25 26  1  0
 26 27  1  0
 26 28  1  0
 28 29  1  0
 29 30  1  0
 30 31  1  0
 31 32  1  0
 32 33  1  0
 33 34  2  0
 33 35  1  0
 35 36  1  0
 36 37  1  0
 37 38  2  0
 38 39  1  0
 39 40  2  0
 40 41  1  0
 41 42  2  0
 35 43  1  0
 43 44  1  0
 44 45  2  0
 44  4  1  0
 24  8  1  0
 20 10  1  0
 21 13  1  0
 21 16  1  0
 43 26  1  0
 32 28  1  0
 42 37  1  0
M  END
>  <pIC50>  (276) 
8.83

>  <ChEMBL_ID>  (276) 
CHEMBL1255837

>  <document_journal>  (276) 
None

>  <bao_endpoint>  (276) 
BAO_0000190

>  <potential_duplicate>  (276) 
False

>  <uo_units>  (276) 
UO_0000065

>  <canonical_smiles>  (276) 
CC(C)[C@@]1(NC(=O)[C@@H]2C[C@H]3[C@@H](Cc4c[nH]c5cccc3c45)N(C)C2)O[C@@]6(O)[C@@H]7CCCN7C(=O)[C@H](Cc8ccccc8)N6C1=O.CS(=O)(=O)O

>  <parent_molecule_chembl_id>  (276) 
CHEMBL601773

>  <assay_type>  (276) 
B

>  <src_id>  (276) 
15

>  <ligand_efficiency>  (276) 
{u'le': u'0.27', u'bei': u'14.44', u'sei': u'7.47', u'lle': u'4.53'}

>  <standard_flag>  (276) 
True

>  <molecule_chembl_id>  (276) 
CHEMBL1255837

>  <target_organism>  (276) 
Homo sapiens

>  <standard_units>  (276) 
nM

>  <record_id>  (276) 
1539701

>  <document_chembl_id>  (276) 
CHEMBL1909046

>  <bao_format>  (276) 
BAO_0000249

>  <data_validity_description>  (276) 
None

>  <activity_id>  (276) 
7694167

>  <standard_type>  (276) 
IC50

>  <target_chembl_id>  (276) 
CHEMBL217

>  <data_validity_comment>  (276) 
None

>  <published_value>  (276) 
0.001474

>  <document_year>  (276) 
None

>  <target_pref_name>  (276) 
Dopamine D2 receptor

>  <assay_chembl_id>  (276) 
CHEMBL1909140

>  <standard_relation>  (276) 
=

>  <assay_description>  (276) 
DRUGMATRIX: Dopamine D2L radioligand binding (ligand: [3H] Spiperone)

>  <published_relation>  (276) 
=

>  <standard_value>  (276) 
1.474

>  <qudt_units>  (276) 
http://www.openphacts.org/units/Nanomolar

>  <target_tax_id>  (276) 
9606

>  <bao_label>  (276) 
cell membrane format

>  <published_units>  (276) 
uM

>  <pchembl_value>  (276) 
8.83

>  <published_type>  (276) 
IC50

>  <activity_comment>  (276) 
None

$$$$

     RDKit          

 16 15  0  0  0  0  0  0  0  0999 V2000
    0.0000    0.0000    0.0000 C   0  0  0  0  0  0  0  0  0  0  0  0
    0.0000    0.0000    0.0000 C   0  0  0  0  0  0  0  0  0  0  0  0
    0.0000    0.0000    0.0000 N   0  0  0  0  0  0  0  0  0  0  0  0
    0.0000    0.0000    0.0000 C   0  0  0  0  0  0  0  0  0  0  0  0
    0.0000    0.0000    0.0000 C   0  0  0  0  0  0  0  0  0  0  0  0
    0.0000    0.0000    0.0000 C   0  0  0  0  0  0  0  0  0  0  0  0
    0.0000    0.0000    0.0000 S   0  0  0  0  0  0  0  0  0  0  0  0
    0.0000    0.0000    0.0000 S   0  0  0  0  0  0  0  0  0  0  0  0
    0.0000    0.0000    0.0000 S   0  0  0  0  0  0  0  0  0  0  0  0
    0.0000    0.0000    0.0000 C   0  0  0  0  0  0  0  0  0  0  0  0
    0.0000    0.0000    0.0000 S   0  0  0  0  0  0  0  0  0  0  0  0
    0.0000    0.0000    0.0000 N   0  0  0  0  0  0  0  0  0  0  0  0
    0.0000    0.0000    0.0000 C   0  0  0  0  0  0  0  0  0  0  0  0
    0.0000    0.0000    0.0000 C   0  0  0  0  0  0  0  0  0  0  0  0
    0.0000    0.0000    0.0000 C   0  0  0  0  0  0  0  0  0  0  0  0
    0.0000    0.0000    0.0000 C   0  0  0  0  0  0  0  0  0  0  0  0
  1  2  1  0
  2  3  1  0
  3  4  1  0
  4  5  1  0
  3  6  1  0
  6  7  2  0
  6  8  1  0
  8  9  1  0
  9 10  1  0
 10 11  2  0
 10 12  1  0
 12 13  1  0
 13 14  1  0
 12 15  1  0
 15 16  1  0
M  END
>  <pIC50>  (277) 
4.64

>  <ChEMBL_ID>  (277) 
CHEMBL964

>  <document_journal>  (277) 
None

>  <bao_endpoint>  (277) 
BAO_0000190

>  <potential_duplicate>  (277) 
False

>  <uo_units>  (277) 
UO_0000065

>  <canonical_smiles>  (277) 
CCN(CC)C(=S)SSC(=S)N(CC)CC

>  <parent_molecule_chembl_id>  (277) 
CHEMBL964

>  <assay_type>  (277) 
B

>  <src_id>  (277) 
15

>  <ligand_efficiency>  (277) 
{u'le': u'0.4', u'bei': u'15.64', u'sei': u'3.82', u'lle': u'-0.96'}

>  <standard_flag>  (277) 
True

>  <molecule_chembl_id>  (277) 
CHEMBL964

>  <target_organism>  (277) 
Homo sapiens

>  <standard_units>  (277) 
nM

>  <record_id>  (277) 
1539710

>  <document_chembl_id>  (277) 
CHEMBL1909046

>  <bao_format>  (277) 
BAO_0000249

>  <data_validity_description>  (277) 
None

>  <activity_id>  (277) 
7696510

>  <standard_type>  (277) 
IC50

>  <target_chembl_id>  (277) 
CHEMBL217

>  <data_validity_comment>  (277) 
None

>  <published_value>  (277) 
23.018

>  <document_year>  (277) 
None

>  <target_pref_name>  (277) 
Dopamine D2 receptor

>  <assay_chembl_id>  (277) 
CHEMBL1909140

>  <standard_relation>  (277) 
=

>  <assay_description>  (277) 
DRUGMATRIX: Dopamine D2L radioligand binding (ligand: [3H] Spiperone)

>  <published_relation>  (277) 
=

>  <standard_value>  (277) 
23018

>  <qudt_units>  (277) 
http://www.openphacts.org/units/Nanomolar

>  <target_tax_id>  (277) 
9606

>  <bao_label>  (277) 
cell membrane format

>  <published_units>  (277) 
uM

>  <pchembl_value>  (277) 
4.64

>  <published_type>  (277) 
IC50

>  <activity_comment>  (277) 
None

$$$$

     RDKit          

 25 28  0  0  0  0  0  0  0  0999 V2000
    0.0000    0.0000    0.0000 Cl  0  0  0  0  0  0  0  0  0  0  0  0
    0.0000    0.0000    0.0000 C   0  0  0  0  0  0  0  0  0  0  0  0
    0.0000    0.0000    0.0000 C   0  0  0  0  0  0  0  0  0  0  0  0
    0.0000    0.0000    0.0000 C   0  0  0  0  0  0  0  0  0  0  0  0
    0.0000    0.0000    0.0000 C   0  0  0  0  0  0  0  0  0  0  0  0
    0.0000    0.0000    0.0000 C   0  0  0  0  0  0  0  0  0  0  0  0
    0.0000    0.0000    0.0000 C   0  0  0  0  0  0  0  0  0  0  0  0
    0.0000    0.0000    0.0000 C   0  0  0  0  0  0  0  0  0  0  0  0
    0.0000    0.0000    0.0000 C   0  0  0  0  0  0  0  0  0  0  0  0
    0.0000    0.0000    0.0000 C   0  0  0  0  0  0  0  0  0  0  0  0
    0.0000    0.0000    0.0000 C   0  0  0  0  0  0  0  0  0  0  0  0
    0.0000    0.0000    0.0000 C   0  0  0  0  0  0  0  0  0  0  0  0
    0.0000    0.0000    0.0000 C   0  0  0  0  0  0  0  0  0  0  0  0
    0.0000    0.0000    0.0000 C   0  0  0  0  0  0  0  0  0  0  0  0
    0.0000    0.0000    0.0000 C   0  0  0  0  0  0  0  0  0  0  0  0
    0.0000    0.0000    0.0000 C   0  0  0  0  0  0  0  0  0  0  0  0
    0.0000    0.0000    0.0000 C   0  0  0  0  0  0  0  0  0  0  0  0
    0.0000    0.0000    0.0000 C   0  0  0  0  0  0  0  0  0  0  0  0
    0.0000    0.0000    0.0000 C   0  0  0  0  0  0  0  0  0  0  0  0
    0.0000    0.0000    0.0000 C   0  0  0  0  0  0  0  0  0  0  0  0
    0.0000    0.0000    0.0000 N   0  0  0  0  0  0  0  0  0  0  0  0
    0.0000    0.0000    0.0000 C   0  0  0  0  0  0  0  0  0  0  0  0
    0.0000    0.0000    0.0000 C   0  0  0  0  0  0  0  0  0  0  0  0
    0.0000    0.0000    0.0000 N   0  0  0  0  0  0  0  0  0  0  0  0
    0.0000    0.0000    0.0000 C   0  0  0  0  0  0  0  0  0  0  0  0
  1  2  1  0
  2  3  2  0
  3  4  1  0
  4  5  2  0
  5  6  1  0
  6  7  2  0
  7  8  1  0
  8  9  1  0
  9 10  2  0
 10 11  1  0
 11 12  2  0
 12 13  1  0
 13 14  2  0
  8 15  1  0
 15 16  2  0
 16 17  1  0
 17 18  2  0
 18 19  1  0
 19 20  2  0
  8 21  1  0
 21 22  1  0
 22 23  2  0
 23 24  1  0
 24 25  2  0
  7  2  1  0
 14  9  1  0
 20 15  1  0
 25 21  1  0
M  END
>  <pIC50>  (278) 
4.91

>  <ChEMBL_ID>  (278) 
CHEMBL104

>  <document_journal>  (278) 
None

>  <bao_endpoint>  (278) 
BAO_0000190

>  <potential_duplicate>  (278) 
False

>  <uo_units>  (278) 
UO_0000065

>  <canonical_smiles>  (278) 
Clc1ccccc1C(c2ccccc2)(c3ccccc3)n4ccnc4

>  <parent_molecule_chembl_id>  (278) 
CHEMBL104

>  <assay_type>  (278) 
B

>  <src_id>  (278) 
15

>  <ligand_efficiency>  (278) 
{u'le': u'0.27', u'bei': u'14.25', u'sei': u'27.58', u'lle': u'-0.31'}

>  <standard_flag>  (278) 
True

>  <molecule_chembl_id>  (278) 
CHEMBL104

>  <target_organism>  (278) 
Homo sapiens

>  <standard_units>  (278) 
nM

>  <record_id>  (278) 
1539645

>  <document_chembl_id>  (278) 
CHEMBL1909046

>  <bao_format>  (278) 
BAO_0000249

>  <data_validity_description>  (278) 
None

>  <activity_id>  (278) 
7697556

>  <standard_type>  (278) 
IC50

>  <target_chembl_id>  (278) 
CHEMBL217

>  <data_validity_comment>  (278) 
None

>  <published_value>  (278) 
12.186

>  <document_year>  (278) 
None

>  <target_pref_name>  (278) 
Dopamine D2 receptor

>  <assay_chembl_id>  (278) 
CHEMBL1909140

>  <standard_relation>  (278) 
=

>  <assay_description>  (278) 
DRUGMATRIX: Dopamine D2L radioligand binding (ligand: [3H] Spiperone)

>  <published_relation>  (278) 
=

>  <standard_value>  (278) 
12186

>  <qudt_units>  (278) 
http://www.openphacts.org/units/Nanomolar

>  <target_tax_id>  (278) 
9606

>  <bao_label>  (278) 
cell membrane format

>  <published_units>  (278) 
uM

>  <pchembl_value>  (278) 
4.91

>  <published_type>  (278) 
IC50

>  <activity_comment>  (278) 
None

$$$$

     RDKit          

 43 50  0  0  0  0  0  0  0  0999 V2000
    0.0000    0.0000    0.0000 C   0  0  0  0  0  0  0  0  0  0  0  0
    0.0000    0.0000    0.0000 N   0  0  0  0  0  0  0  0  0  0  0  0
    0.0000    0.0000    0.0000 C   0  0  0  0  0  0  0  0  0  0  0  0
    0.0000    0.0000    0.0000 C   0  0  0  0  0  0  0  0  0  0  0  0
    0.0000    0.0000    0.0000 C   0  0  0  0  0  0  0  0  0  0  0  0
    0.0000    0.0000    0.0000 C   0  0  0  0  0  0  0  0  0  0  0  0
    0.0000    0.0000    0.0000 C   0  0  0  0  0  0  0  0  0  0  0  0
    0.0000    0.0000    0.0000 C   0  0  0  0  0  0  0  0  0  0  0  0
    0.0000    0.0000    0.0000 C   0  0  0  0  0  0  0  0  0  0  0  0
    0.0000    0.0000    0.0000 C   0  0  0  0  0  0  0  0  0  0  0  0
    0.0000    0.0000    0.0000 N   0  0  0  0  0  0  0  0  0  0  0  0
    0.0000    0.0000    0.0000 C   0  0  0  0  0  0  0  0  0  0  0  0
    0.0000    0.0000    0.0000 C   0  0  0  0  0  0  0  0  0  0  0  0
    0.0000    0.0000    0.0000 C   0  0  0  0  0  0  0  0  0  0  0  0
    0.0000    0.0000    0.0000 C   0  0  0  0  0  0  0  0  0  0  0  0
    0.0000    0.0000    0.0000 C   0  0  0  0  0  0  0  0  0  0  0  0
    0.0000    0.0000    0.0000 C   0  0  0  0  0  0  0  0  0  0  0  0
    0.0000    0.0000    0.0000 C   0  0  0  0  0  0  0  0  0  0  0  0
    0.0000    0.0000    0.0000 O   0  0  0  0  0  0  0  0  0  0  0  0
    0.0000    0.0000    0.0000 N   0  0  0  0  0  0  0  0  0  0  0  0
    0.0000    0.0000    0.0000 C   0  0  0  0  0  0  0  0  0  0  0  0
    0.0000    0.0000    0.0000 C   0  0  0  0  0  0  0  0  0  0  0  0
    0.0000    0.0000    0.0000 O   0  0  0  0  0  0  0  0  0  0  0  0
    0.0000    0.0000    0.0000 C   0  0  0  0  0  0  0  0  0  0  0  0
    0.0000    0.0000    0.0000 O   0  0  0  0  0  0  0  0  0  0  0  0
    0.0000    0.0000    0.0000 C   0  0  0  0  0  0  0  0  0  0  0  0
    0.0000    0.0000    0.0000 C   0  0  0  0  0  0  0  0  0  0  0  0
    0.0000    0.0000    0.0000 C   0  0  0  0  0  0  0  0  0  0  0  0
    0.0000    0.0000    0.0000 C   0  0  0  0  0  0  0  0  0  0  0  0
    0.0000    0.0000    0.0000 N   0  0  0  0  0  0  0  0  0  0  0  0
    0.0000    0.0000    0.0000 C   0  0  0  0  0  0  0  0  0  0  0  0
    0.0000    0.0000    0.0000 O   0  0  0  0  0  0  0  0  0  0  0  0
    0.0000    0.0000    0.0000 C   0  0  0  0  0  0  0  0  0  0  0  0
    0.0000    0.0000    0.0000 C   0  0  0  0  0  0  0  0  0  0  0  0
    0.0000    0.0000    0.0000 C   0  0  0  0  0  0  0  0  0  0  0  0
    0.0000    0.0000    0.0000 C   0  0  0  0  0  0  0  0  0  0  0  0
    0.0000    0.0000    0.0000 C   0  0  0  0  0  0  0  0  0  0  0  0
    0.0000    0.0000    0.0000 C   0  0  0  0  0  0  0  0  0  0  0  0
    0.0000    0.0000    0.0000 C   0  0  0  0  0  0  0  0  0  0  0  0
    0.0000    0.0000    0.0000 C   0  0  0  0  0  0  0  0  0  0  0  0
    0.0000    0.0000    0.0000 N   0  0  0  0  0  0  0  0  0  0  0  0
    0.0000    0.0000    0.0000 C   0  0  0  0  0  0  0  0  0  0  0  0
    0.0000    0.0000    0.0000 O   0  0  0  0  0  0  0  0  0  0  0  0
  1  2  1  0
  2  3  1  0
  3  4  1  0
  4  5  1  0
  5  6  1  0
  6  7  1  0
  7  8  1  0
  8  9  1  0
  9 10  2  0
 10 11  1  0
 11 12  1  0
 12 13  2  0
 13 14  1  0
 14 15  2  0
 15 16  1  0
 16 17  2  0
  4 18  1  0
 18 19  2  0
 18 20  1  0
 20 21  1  0
 21 22  1  0
 21 23  1  0
 23 24  1  0
 24 25  1  0
 24 26  1  0
 26 27  1  0
 27 28  1  0
 28 29  1  0
 29 30  1  0
 30 31  1  0
 31 32  2  0
 31 33  1  0
 33 34  1  0
 34 35  1  0
 35 36  2  0
 36 37  1  0
 37 38  2  0
 38 39  1  0
 39 40  2  0
 33 41  1  0
 41 42  1  0
 42 43  2  0
  7  2  1  0
 16  6  1  0
 17  9  1  0
 17 12  1  0
 42 21  1  0
 41 24  1  0
 30 26  1  0
 40 35  1  0
M  END
>  <pIC50>  (279) 
8.05

>  <ChEMBL_ID>  (279) 
CHEMBL1732

>  <document_journal>  (279) 
None

>  <bao_endpoint>  (279) 
BAO_0000190

>  <potential_duplicate>  (279) 
False

>  <uo_units>  (279) 
UO_0000065

>  <canonical_smiles>  (279) 
CN1C[C@@H](C[C@H]2[C@H]1Cc3c[nH]c4cccc2c34)C(=O)N[C@]5(C)O[C@@]6(O)[C@@H]7CCCN7C(=O)[C@H](Cc8ccccc8)N6C5=O

>  <parent_molecule_chembl_id>  (279) 
CHEMBL1732

>  <assay_type>  (279) 
B

>  <src_id>  (279) 
15

>  <ligand_efficiency>  (279) 
{u'le': u'0.26', u'bei': u'13.79', u'sei': u'6.81', u'lle': u'4.85'}

>  <standard_flag>  (279) 
True

>  <molecule_chembl_id>  (279) 
CHEMBL1732

>  <target_organism>  (279) 
Homo sapiens

>  <standard_units>  (279) 
nM

>  <record_id>  (279) 
1539702

>  <document_chembl_id>  (279) 
CHEMBL1909046

>  <bao_format>  (279) 
BAO_0000249

>  <data_validity_description>  (279) 
None

>  <activity_id>  (279) 
7698480

>  <standard_type>  (279) 
IC50

>  <target_chembl_id>  (279) 
CHEMBL217

>  <data_validity_comment>  (279) 
None

>  <published_value>  (279) 
0.00888

>  <document_year>  (279) 
None

>  <target_pref_name>  (279) 
Dopamine D2 receptor

>  <assay_chembl_id>  (279) 
CHEMBL1909140

>  <standard_relation>  (279) 
=

>  <assay_description>  (279) 
DRUGMATRIX: Dopamine D2L radioligand binding (ligand: [3H] Spiperone)

>  <published_relation>  (279) 
=

>  <standard_value>  (279) 
8.88

>  <qudt_units>  (279) 
http://www.openphacts.org/units/Nanomolar

>  <target_tax_id>  (279) 
9606

>  <bao_label>  (279) 
cell membrane format

>  <published_units>  (279) 
uM

>  <pchembl_value>  (279) 
8.05

>  <published_type>  (279) 
IC50

>  <activity_comment>  (279) 
None

$$$$

     RDKit          

 20 21  0  0  0  0  0  0  0  0999 V2000
    0.0000    0.0000    0.0000 C   0  0  0  0  0  0  0  0  0  0  0  0
    0.0000    0.0000    0.0000 C   0  0  0  0  0  0  0  0  0  0  0  0
    0.0000    0.0000    0.0000 C   0  0  0  0  0  0  0  0  0  0  0  0
    0.0000    0.0000    0.0000 C   0  0  0  0  0  0  0  0  0  0  0  0
    0.0000    0.0000    0.0000 C   0  0  0  0  0  0  0  0  0  0  0  0
    0.0000    0.0000    0.0000 C   0  0  0  0  0  0  0  0  0  0  0  0
    0.0000    0.0000    0.0000 C   0  0  0  0  0  0  0  0  0  0  0  0
    0.0000    0.0000    0.0000 C   0  0  0  0  0  0  0  0  0  0  0  0
    0.0000    0.0000    0.0000 C   0  0  0  0  0  0  0  0  0  0  0  0
    0.0000    0.0000    0.0000 C   0  0  0  0  0  0  0  0  0  0  0  0
    0.0000    0.0000    0.0000 O   0  0  0  0  0  0  0  0  0  0  0  0
    0.0000    0.0000    0.0000 C   0  0  0  0  0  0  0  0  0  0  0  0
    0.0000    0.0000    0.0000 C   0  0  0  0  0  0  0  0  0  0  0  0
    0.0000    0.0000    0.0000 C   0  0  0  0  0  0  0  0  0  0  0  0
    0.0000    0.0000    0.0000 C   0  0  0  0  0  0  0  0  0  0  0  0
    0.0000    0.0000    0.0000 C   0  0  0  0  0  0  0  0  0  0  0  0
    0.0000    0.0000    0.0000 C   0  0  0  0  0  0  0  0  0  0  0  0
    0.0000    0.0000    0.0000 O   0  0  0  0  0  0  0  0  0  0  0  0
    0.0000    0.0000    0.0000 C   0  0  0  0  0  0  0  0  0  0  0  0
    0.0000    0.0000    0.0000 C   0  0  0  0  0  0  0  0  0  0  0  0
  1  2  1  0
  2  3  1  0
  3  4  2  0
  4  5  1  0
  5  6  1  0
  4  7  1  0
  7  8  2  0
  8  9  1  0
  9 10  2  0
 10 11  1  0
 10 12  1  0
 12 13  2  0
  3 14  1  0
 14 15  2  0
 15 16  1  0
 16 17  2  0
 17 18  1  0
 17 19  1  0
 19 20  2  0
 13  7  1  0
 20 14  1  0
M  END
>  <pIC50>  (280) 
4.88

>  <ChEMBL_ID>  (280) 
CHEMBL411

>  <document_journal>  (280) 
None

>  <bao_endpoint>  (280) 
BAO_0000190

>  <potential_duplicate>  (280) 
False

>  <uo_units>  (280) 
UO_0000065

>  <canonical_smiles>  (280) 
CC\C(=C(\CC)/c1ccc(O)cc1)\c2ccc(O)cc2

>  <parent_molecule_chembl_id>  (280) 
CHEMBL411

>  <assay_type>  (280) 
B

>  <src_id>  (280) 
15

>  <ligand_efficiency>  (280) 
{u'le': u'0.33', u'bei': u'18.17', u'sei': u'12.05', u'lle': u'-0.26'}

>  <standard_flag>  (280) 
True

>  <molecule_chembl_id>  (280) 
CHEMBL411

>  <target_organism>  (280) 
Homo sapiens

>  <standard_units>  (280) 
nM

>  <record_id>  (280) 
1539695

>  <document_chembl_id>  (280) 
CHEMBL1909046

>  <bao_format>  (280) 
BAO_0000249

>  <data_validity_description>  (280) 
None

>  <activity_id>  (280) 
7702710

>  <standard_type>  (280) 
IC50

>  <target_chembl_id>  (280) 
CHEMBL217

>  <data_validity_comment>  (280) 
None

>  <published_value>  (280) 
13.321

>  <document_year>  (280) 
None

>  <target_pref_name>  (280) 
Dopamine D2 receptor

>  <assay_chembl_id>  (280) 
CHEMBL1909140

>  <standard_relation>  (280) 
=

>  <assay_description>  (280) 
DRUGMATRIX: Dopamine D2L radioligand binding (ligand: [3H] Spiperone)

>  <published_relation>  (280) 
=

>  <standard_value>  (280) 
13321

>  <qudt_units>  (280) 
http://www.openphacts.org/units/Nanomolar

>  <target_tax_id>  (280) 
9606

>  <bao_label>  (280) 
cell membrane format

>  <published_units>  (280) 
uM

>  <pchembl_value>  (280) 
4.88

>  <published_type>  (280) 
IC50

>  <activity_comment>  (280) 
None

$$$$

     RDKit          

 28 31  0  0  0  0  0  0  0  0999 V2000
    0.0000    0.0000    0.0000 C   0  0  0  0  0  0  0  0  0  0  0  0
    0.0000    0.0000    0.0000 C   0  0  0  0  0  0  0  0  0  0  0  0
    0.0000    0.0000    0.0000 C   0  0  0  0  0  0  0  0  0  0  0  0
    0.0000    0.0000    0.0000 C   0  0  0  0  0  0  0  0  0  0  0  0
    0.0000    0.0000    0.0000 C   0  0  0  0  0  0  0  0  0  0  0  0
    0.0000    0.0000    0.0000 C   0  0  0  0  0  0  0  0  0  0  0  0
    0.0000    0.0000    0.0000 C   0  0  0  0  0  0  0  0  0  0  0  0
    0.0000    0.0000    0.0000 C   0  0  0  0  0  0  0  0  0  0  0  0
    0.0000    0.0000    0.0000 C   0  0  0  0  0  0  0  0  0  0  0  0
    0.0000    0.0000    0.0000 N   0  0  0  0  0  0  0  0  0  0  0  0
    0.0000    0.0000    0.0000 C   0  0  0  0  0  0  0  0  0  0  0  0
    0.0000    0.0000    0.0000 C   0  0  0  0  0  0  0  0  0  0  0  0
    0.0000    0.0000    0.0000 N   0  0  0  0  0  0  0  0  0  0  0  0
    0.0000    0.0000    0.0000 C   0  0  0  0  0  0  0  0  0  0  0  0
    0.0000    0.0000    0.0000 C   0  0  0  0  0  0  0  0  0  0  0  0
    0.0000    0.0000    0.0000 C   0  0  0  0  0  0  0  0  0  0  0  0
    0.0000    0.0000    0.0000 C   0  0  0  0  0  0  0  0  0  0  0  0
    0.0000    0.0000    0.0000 C   0  0  0  0  0  0  0  0  0  0  0  0
    0.0000    0.0000    0.0000 C   0  0  0  0  0  0  0  0  0  0  0  0
    0.0000    0.0000    0.0000 C   0  0  0  0  0  0  0  0  0  0  0  0
    0.0000    0.0000    0.0000 C   0  0  0  0  0  0  0  0  0  0  0  0
    0.0000    0.0000    0.0000 C   0  0  0  0  0  0  0  0  0  0  0  0
    0.0000    0.0000    0.0000 C   0  0  0  0  0  0  0  0  0  0  0  0
    0.0000    0.0000    0.0000 C   0  0  0  0  0  0  0  0  0  0  0  0
    0.0000    0.0000    0.0000 C   0  0  0  0  0  0  0  0  0  0  0  0
    0.0000    0.0000    0.0000 C   0  0  0  0  0  0  0  0  0  0  0  0
    0.0000    0.0000    0.0000 C   0  0  0  0  0  0  0  0  0  0  0  0
    0.0000    0.0000    0.0000 C   0  0  0  0  0  0  0  0  0  0  0  0
  1  2  1  0
  2  3  2  0
  3  4  1  0
  4  5  2  0
  5  6  1  0
  6  7  2  0
  7  8  1  0
  8  9  2  0
  1 10  1  0
 10 11  1  0
 11 12  1  0
 12 13  1  0
 13 14  1  0
 14 15  1  0
 13 16  1  0
 16 17  1  0
 17 18  2  0
 18 19  1  0
 19 20  2  0
 20 21  1  0
 21 22  2  0
 16 23  1  0
 23 24  2  0
 24 25  1  0
 25 26  2  0
 26 27  1  0
 27 28  2  0
  9  4  1  0
 15 10  1  0
 22 17  1  0
 28 23  1  0
M  END
>  <pIC50>  (281) 
6.11

>  <ChEMBL_ID>  (281) 
CHEMBL43064

>  <document_journal>  (281) 
None

>  <bao_endpoint>  (281) 
BAO_0000190

>  <potential_duplicate>  (281) 
False

>  <uo_units>  (281) 
UO_0000065

>  <canonical_smiles>  (281) 
C(\C=C\c1ccccc1)N2CCN(CC2)C(c3ccccc3)c4ccccc4

>  <parent_molecule_chembl_id>  (281) 
CHEMBL43064

>  <assay_type>  (281) 
B

>  <src_id>  (281) 
15

>  <ligand_efficiency>  (281) 
{u'le': u'0.3', u'bei': u'16.58', u'sei': u'94.29', u'lle': u'0.59'}

>  <standard_flag>  (281) 
True

>  <molecule_chembl_id>  (281) 
CHEMBL43064

>  <target_organism>  (281) 
Homo sapiens

>  <standard_units>  (281) 
nM

>  <record_id>  (281) 
1539622

>  <document_chembl_id>  (281) 
CHEMBL1909046

>  <bao_format>  (281) 
BAO_0000249

>  <data_validity_description>  (281) 
None

>  <activity_id>  (281) 
7705864

>  <standard_type>  (281) 
IC50

>  <target_chembl_id>  (281) 
CHEMBL217

>  <data_validity_comment>  (281) 
None

>  <published_value>  (281) 
0.776

>  <document_year>  (281) 
None

>  <target_pref_name>  (281) 
Dopamine D2 receptor

>  <assay_chembl_id>  (281) 
CHEMBL1909140

>  <standard_relation>  (281) 
=

>  <assay_description>  (281) 
DRUGMATRIX: Dopamine D2L radioligand binding (ligand: [3H] Spiperone)

>  <published_relation>  (281) 
=

>  <standard_value>  (281) 
776

>  <qudt_units>  (281) 
http://www.openphacts.org/units/Nanomolar

>  <target_tax_id>  (281) 
9606

>  <bao_label>  (281) 
cell membrane format

>  <published_units>  (281) 
uM

>  <pchembl_value>  (281) 
6.11

>  <published_type>  (281) 
IC50

>  <activity_comment>  (281) 
None

$$$$

     RDKit          

 21 23  0  0  0  0  0  0  0  0999 V2000
    0.0000    0.0000    0.0000 C   0  0  0  0  0  0  0  0  0  0  0  0
    0.0000    0.0000    0.0000 N   0  0  0  0  0  0  0  0  0  0  0  0
    0.0000    0.0000    0.0000 C   0  0  0  0  0  0  0  0  0  0  0  0
    0.0000    0.0000    0.0000 C   0  0  0  0  0  0  0  0  0  0  0  0
    0.0000    0.0000    0.0000 C   0  0  0  0  0  0  0  0  0  0  0  0
    0.0000    0.0000    0.0000 C   0  0  0  0  0  0  0  0  0  0  0  0
    0.0000    0.0000    0.0000 N   0  0  0  0  0  0  0  0  0  0  0  0
    0.0000    0.0000    0.0000 C   0  0  0  0  0  0  0  0  0  0  0  0
    0.0000    0.0000    0.0000 C   0  0  0  0  0  0  0  0  0  0  0  0
    0.0000    0.0000    0.0000 C   0  0  0  0  0  0  0  0  0  0  0  0
    0.0000    0.0000    0.0000 C   0  0  0  0  0  0  0  0  0  0  0  0
    0.0000    0.0000    0.0000 C   0  0  0  0  0  0  0  0  0  0  0  0
    0.0000    0.0000    0.0000 C   0  0  0  0  0  0  0  0  0  0  0  0
    0.0000    0.0000    0.0000 S   0  0  0  0  0  0  0  0  0  0  0  0
    0.0000    0.0000    0.0000 C   0  0  0  0  0  0  0  0  0  0  0  0
    0.0000    0.0000    0.0000 C   0  0  0  0  0  0  0  0  0  0  0  0
    0.0000    0.0000    0.0000 C   0  0  0  0  0  0  0  0  0  0  0  0
    0.0000    0.0000    0.0000 C   0  0  0  0  0  0  0  0  0  0  0  0
    0.0000    0.0000    0.0000 Cl  0  0  0  0  0  0  0  0  0  0  0  0
    0.0000    0.0000    0.0000 C   0  0  0  0  0  0  0  0  0  0  0  0
    0.0000    0.0000    0.0000 C   0  0  0  0  0  0  0  0  0  0  0  0
  1  2  1  0
  2  3  1  0
  2  4  1  0
  4  5  1  0
  5  6  1  0
  6  7  1  0
  7  8  1  0
  8  9  2  0
  9 10  1  0
 10 11  2  0
 11 12  1  0
 12 13  2  0
 13 14  1  0
 14 15  1  0
 15 16  2  0
 16 17  1  0
 17 18  2  0
 18 19  1  0
 18 20  1  0
 20 21  2  0
 21  7  1  0
 13  8  1  0
 21 15  1  0
M  END
>  <pIC50>  (282) 
8.2975

>  <ChEMBL_ID>  (282) 
CHEMBL71

>  <document_journal>  (282) 
None

>  <bao_endpoint>  (282) 
BAO_0000190

>  <potential_duplicate>  (282) 
False

>  <uo_units>  (282) 
UO_0000065

>  <canonical_smiles>  (282) 
CN(C)CCCN1c2ccccc2Sc3ccc(Cl)cc13

>  <parent_molecule_chembl_id>  (282) 
CHEMBL71

>  <assay_type>  (282) 
B

>  <src_id>  (282) 
15

>  <ligand_efficiency>  (282) 
{u'le': u'0.47', u'bei': u'22.79', u'sei': u'22.87', u'lle': u'2.53'}

>  <standard_flag>  (282) 
True

>  <molecule_chembl_id>  (282) 
CHEMBL71

>  <target_organism>  (282) 
Homo sapiens

>  <standard_units>  (282) 
nM

>  <record_id>  (282) 
1539606

>  <document_chembl_id>  (282) 
CHEMBL1909046

>  <bao_format>  (282) 
BAO_0000249

>  <data_validity_description>  (282) 
None

>  <activity_id>  (282) 
7707687

>  <standard_type>  (282) 
IC50

>  <target_chembl_id>  (282) 
CHEMBL217

>  <data_validity_comment>  (282) 
None

>  <published_value>  (282) 
0.054

>  <document_year>  (282) 
None

>  <target_pref_name>  (282) 
Dopamine D2 receptor

>  <assay_chembl_id>  (282) 
CHEMBL1909140

>  <standard_relation>  (282) 
=

>  <assay_description>  (282) 
DRUGMATRIX: Dopamine D2L radioligand binding (ligand: [3H] Spiperone)

>  <published_relation>  (282) 
=

>  <standard_value>  (282) 
54

>  <qudt_units>  (282) 
http://www.openphacts.org/units/Nanomolar

>  <target_tax_id>  (282) 
9606

>  <bao_label>  (282) 
cell membrane format

>  <published_units>  (282) 
uM

>  <pchembl_value>  (282) 
7.27

>  <published_type>  (282) 
IC50

>  <activity_comment>  (282) 
None

$$$$

     RDKit          

 22 24  0  0  0  0  0  0  0  0999 V2000
    0.0000    0.0000    0.0000 C   0  0  0  0  0  0  0  0  0  0  0  0
    0.0000    0.0000    0.0000 N   0  0  0  0  0  0  0  0  0  0  0  0
    0.0000    0.0000    0.0000 C   0  0  0  0  0  0  0  0  0  0  0  0
    0.0000    0.0000    0.0000 C   0  0  0  0  0  0  0  0  0  0  0  0
    0.0000    0.0000    0.0000 C   0  0  0  0  0  0  0  0  0  0  0  0
    0.0000    0.0000    0.0000 C   0  0  0  0  0  0  0  0  0  0  0  0
    0.0000    0.0000    0.0000 N   0  0  0  0  0  0  0  0  0  0  0  0
    0.0000    0.0000    0.0000 C   0  0  0  0  0  0  0  0  0  0  0  0
    0.0000    0.0000    0.0000 C   0  0  0  0  0  0  0  0  0  0  0  0
    0.0000    0.0000    0.0000 C   0  0  0  0  0  0  0  0  0  0  0  0
    0.0000    0.0000    0.0000 C   0  0  0  0  0  0  0  0  0  0  0  0
    0.0000    0.0000    0.0000 C   0  0  0  0  0  0  0  0  0  0  0  0
    0.0000    0.0000    0.0000 C   0  0  0  0  0  0  0  0  0  0  0  0
    0.0000    0.0000    0.0000 C   0  0  0  0  0  0  0  0  0  0  0  0
    0.0000    0.0000    0.0000 C   0  0  0  0  0  0  0  0  0  0  0  0
    0.0000    0.0000    0.0000 C   0  0  0  0  0  0  0  0  0  0  0  0
    0.0000    0.0000    0.0000 C   0  0  0  0  0  0  0  0  0  0  0  0
    0.0000    0.0000    0.0000 C   0  0  0  0  0  0  0  0  0  0  0  0
    0.0000    0.0000    0.0000 C   0  0  0  0  0  0  0  0  0  0  0  0
    0.0000    0.0000    0.0000 Cl  0  0  0  0  0  0  0  0  0  0  0  0
    0.0000    0.0000    0.0000 C   0  0  0  0  0  0  0  0  0  0  0  0
    0.0000    0.0000    0.0000 C   0  0  0  0  0  0  0  0  0  0  0  0
  1  2  1  0
  2  3  1  0
  2  4  1  0
  4  5  1  0
  5  6  1  0
  6  7  1  0
  7  8  1  0
  8  9  2  0
  9 10  1  0
 10 11  2  0
 11 12  1  0
 12 13  2  0
 13 14  1  0
 14 15  1  0
 15 16  1  0
 16 17  2  0
 17 18  1  0
 18 19  2  0
 19 20  1  0
 19 21  1  0
 21 22  2  0
 22  7  1  0
 13  8  1  0
 22 16  1  0
M  END
>  <pIC50>  (283) 
6.38

>  <ChEMBL_ID>  (283) 
CHEMBL415

>  <document_journal>  (283) 
None

>  <bao_endpoint>  (283) 
BAO_0000190

>  <potential_duplicate>  (283) 
False

>  <uo_units>  (283) 
UO_0000065

>  <canonical_smiles>  (283) 
CN(C)CCCN1c2ccccc2CCc3ccc(Cl)cc13

>  <parent_molecule_chembl_id>  (283) 
CHEMBL415

>  <assay_type>  (283) 
B

>  <src_id>  (283) 
15

>  <ligand_efficiency>  (283) 
{u'le': u'0.4', u'bei': u'20.28', u'sei': u'98.52', u'lle': u'1.33'}

>  <standard_flag>  (283) 
True

>  <molecule_chembl_id>  (283) 
CHEMBL415

>  <target_organism>  (283) 
Homo sapiens

>  <standard_units>  (283) 
nM

>  <record_id>  (283) 
1539639

>  <document_chembl_id>  (283) 
CHEMBL1909046

>  <bao_format>  (283) 
BAO_0000249

>  <data_validity_description>  (283) 
None

>  <activity_id>  (283) 
7708344

>  <standard_type>  (283) 
IC50

>  <target_chembl_id>  (283) 
CHEMBL217

>  <data_validity_comment>  (283) 
None

>  <published_value>  (283) 
0.413

>  <document_year>  (283) 
None

>  <target_pref_name>  (283) 
Dopamine D2 receptor

>  <assay_chembl_id>  (283) 
CHEMBL1909140

>  <standard_relation>  (283) 
=

>  <assay_description>  (283) 
DRUGMATRIX: Dopamine D2L radioligand binding (ligand: [3H] Spiperone)

>  <published_relation>  (283) 
=

>  <standard_value>  (283) 
413

>  <qudt_units>  (283) 
http://www.openphacts.org/units/Nanomolar

>  <target_tax_id>  (283) 
9606

>  <bao_label>  (283) 
cell membrane format

>  <published_units>  (283) 
uM

>  <pchembl_value>  (283) 
6.38

>  <published_type>  (283) 
IC50

>  <activity_comment>  (283) 
None

$$$$

     RDKit          

 22 25  0  0  0  0  0  0  0  0999 V2000
    0.0000    0.0000    0.0000 C   0  0  0  0  0  0  0  0  0  0  0  0
    0.0000    0.0000    0.0000 N   0  0  0  0  0  0  0  0  0  0  0  0
    0.0000    0.0000    0.0000 C   0  0  0  0  0  0  0  0  0  0  0  0
    0.0000    0.0000    0.0000 C   0  0  0  0  0  0  0  0  0  0  0  0
    0.0000    0.0000    0.0000 C   0  0  0  0  0  0  0  0  0  0  0  0
    0.0000    0.0000    0.0000 C   0  0  0  0  0  0  0  0  0  0  0  0
    0.0000    0.0000    0.0000 C   0  0  0  0  0  0  0  0  0  0  0  0
    0.0000    0.0000    0.0000 C   0  0  0  0  0  0  0  0  0  0  0  0
    0.0000    0.0000    0.0000 C   0  0  0  0  0  0  0  0  0  0  0  0
    0.0000    0.0000    0.0000 C   0  0  0  0  0  0  0  0  0  0  0  0
    0.0000    0.0000    0.0000 C   0  0  0  0  0  0  0  0  0  0  0  0
    0.0000    0.0000    0.0000 C   0  0  0  0  0  0  0  0  0  0  0  0
    0.0000    0.0000    0.0000 C   0  0  0  0  0  0  0  0  0  0  0  0
    0.0000    0.0000    0.0000 C   0  0  0  0  0  0  0  0  0  0  0  0
    0.0000    0.0000    0.0000 C   0  0  0  0  0  0  0  0  0  0  0  0
    0.0000    0.0000    0.0000 C   0  0  0  0  0  0  0  0  0  0  0  0
    0.0000    0.0000    0.0000 C   0  0  0  0  0  0  0  0  0  0  0  0
    0.0000    0.0000    0.0000 C   0  0  0  0  0  0  0  0  0  0  0  0
    0.0000    0.0000    0.0000 C   0  0  0  0  0  0  0  0  0  0  0  0
    0.0000    0.0000    0.0000 C   0  0  0  0  0  0  0  0  0  0  0  0
    0.0000    0.0000    0.0000 C   0  0  0  0  0  0  0  0  0  0  0  0
    0.0000    0.0000    0.0000 C   0  0  0  0  0  0  0  0  0  0  0  0
  1  2  1  0
  2  3  1  0
  3  4  1  0
  4  5  1  0
  5  6  2  3
  6  7  1  0
  7  8  2  0
  8  9  1  0
  9 10  2  0
 10 11  1  0
 11 12  2  0
 12 13  1  0
 13 14  2  0
 14 15  1  0
 15 16  2  0
 16 17  1  0
 17 18  2  0
 18 19  1  0
 19 20  2  0
  5 21  1  0
 21 22  1  0
 22  2  1  0
 20  6  1  0
 12  7  1  0
 20 15  1  0
M  END
>  <pIC50>  (284) 
6.79

>  <ChEMBL_ID>  (284) 
CHEMBL516

>  <document_journal>  (284) 
None

>  <bao_endpoint>  (284) 
BAO_0000190

>  <potential_duplicate>  (284) 
False

>  <uo_units>  (284) 
UO_0000065

>  <canonical_smiles>  (284) 
CN1CCC(=C2c3ccccc3C=Cc4ccccc24)CC1

>  <parent_molecule_chembl_id>  (284) 
CHEMBL516

>  <assay_type>  (284) 
B

>  <src_id>  (284) 
15

>  <ligand_efficiency>  (284) 
{u'le': u'0.42', u'bei': u'23.61', u'sei': u'209.42', u'lle': u'2.43'}

>  <standard_flag>  (284) 
True

>  <molecule_chembl_id>  (284) 
CHEMBL516

>  <target_organism>  (284) 
Homo sapiens

>  <standard_units>  (284) 
nM

>  <record_id>  (284) 
1539664

>  <document_chembl_id>  (284) 
CHEMBL1909046

>  <bao_format>  (284) 
BAO_0000249

>  <data_validity_description>  (284) 
None

>  <activity_id>  (284) 
7708732

>  <standard_type>  (284) 
IC50

>  <target_chembl_id>  (284) 
CHEMBL217

>  <data_validity_comment>  (284) 
None

>  <published_value>  (284) 
0.164

>  <document_year>  (284) 
None

>  <target_pref_name>  (284) 
Dopamine D2 receptor

>  <assay_chembl_id>  (284) 
CHEMBL1909140

>  <standard_relation>  (284) 
=

>  <assay_description>  (284) 
DRUGMATRIX: Dopamine D2L radioligand binding (ligand: [3H] Spiperone)

>  <published_relation>  (284) 
=

>  <standard_value>  (284) 
164

>  <qudt_units>  (284) 
http://www.openphacts.org/units/Nanomolar

>  <target_tax_id>  (284) 
9606

>  <bao_label>  (284) 
cell membrane format

>  <published_units>  (284) 
uM

>  <pchembl_value>  (284) 
6.79

>  <published_type>  (284) 
IC50

>  <activity_comment>  (284) 
None

$$$$

     RDKit          

 30 34  0  0  0  0  0  0  0  0999 V2000
    0.0000    0.0000    0.0000 Cl  0  0  0  0  0  0  0  0  0  0  0  0
    0.0000    0.0000    0.0000 C   0  0  0  0  0  0  0  0  0  0  0  0
    0.0000    0.0000    0.0000 C   0  0  0  0  0  0  0  0  0  0  0  0
    0.0000    0.0000    0.0000 C   0  0  0  0  0  0  0  0  0  0  0  0
    0.0000    0.0000    0.0000 C   0  0  0  0  0  0  0  0  0  0  0  0
    0.0000    0.0000    0.0000 N   0  0  0  0  0  0  0  0  0  0  0  0
    0.0000    0.0000    0.0000 C   0  0  0  0  0  0  0  0  0  0  0  0
    0.0000    0.0000    0.0000 C   0  0  0  0  0  0  0  0  0  0  0  0
    0.0000    0.0000    0.0000 C   0  0  0  0  0  0  0  0  0  0  0  0
    0.0000    0.0000    0.0000 N   0  0  0  0  0  0  0  0  0  0  0  0
    0.0000    0.0000    0.0000 C   0  0  0  0  0  0  0  0  0  0  0  0
    0.0000    0.0000    0.0000 C   0  0  0  0  0  0  0  0  0  0  0  0
    0.0000    0.0000    0.0000 C   0  0  0  0  0  0  0  0  0  0  0  0
    0.0000    0.0000    0.0000 N   0  0  0  0  0  0  0  0  0  0  0  0
    0.0000    0.0000    0.0000 C   0  0  0  0  0  0  0  0  0  0  0  0
    0.0000    0.0000    0.0000 O   0  0  0  0  0  0  0  0  0  0  0  0
    0.0000    0.0000    0.0000 N   0  0  0  0  0  0  0  0  0  0  0  0
    0.0000    0.0000    0.0000 C   0  0  0  0  0  0  0  0  0  0  0  0
    0.0000    0.0000    0.0000 C   0  0  0  0  0  0  0  0  0  0  0  0
    0.0000    0.0000    0.0000 C   0  0  0  0  0  0  0  0  0  0  0  0
    0.0000    0.0000    0.0000 C   0  0  0  0  0  0  0  0  0  0  0  0
    0.0000    0.0000    0.0000 C   0  0  0  0  0  0  0  0  0  0  0  0
    0.0000    0.0000    0.0000 C   0  0  0  0  0  0  0  0  0  0  0  0
    0.0000    0.0000    0.0000 C   0  0  0  0  0  0  0  0  0  0  0  0
    0.0000    0.0000    0.0000 C   0  0  0  0  0  0  0  0  0  0  0  0
    0.0000    0.0000    0.0000 C   0  0  0  0  0  0  0  0  0  0  0  0
    0.0000    0.0000    0.0000 O   0  0  0  0  0  0  0  0  0  0  0  0
    0.0000    0.0000    0.0000 N   0  0  0  0  0  0  0  0  0  0  0  0
    0.0000    0.0000    0.0000 C   0  0  0  0  0  0  0  0  0  0  0  0
    0.0000    0.0000    0.0000 C   0  0  0  0  0  0  0  0  0  0  0  0
  1  2  1  0
  2  3  2  0
  3  4  1  0
  4  5  2  0
  5  6  1  0
  6  7  1  0
  7  8  1  0
  8  9  1  0
  9 10  1  0
 10 11  1  0
 11 12  1  0
 12 13  1  0
 13 14  1  0
 14 15  1  0
 15 16  2  0
 15 17  1  0
 17 18  1  0
 18 19  2  0
 19 20  1  0
 20 21  2  0
 21 22  1  0
 22 23  2  0
 10 24  1  0
 24 25  1  0
  6 26  1  0
 26 27  2  0
 26 28  1  0
 28 29  1  0
 29 30  2  0
 30  2  1  0
 29  5  1  0
 25  7  1  0
 23 14  1  0
 23 18  1  0
M  END
>  <pIC50>  (285) 
8.58

>  <ChEMBL_ID>  (285) 
CHEMBL219916

>  <document_journal>  (285) 
None

>  <bao_endpoint>  (285) 
BAO_0000190

>  <potential_duplicate>  (285) 
False

>  <uo_units>  (285) 
UO_0000065

>  <canonical_smiles>  (285) 
Clc1ccc2N(C3CCN(CCCN4C(=O)Nc5ccccc45)CC3)C(=O)Nc2c1

>  <parent_molecule_chembl_id>  (285) 
CHEMBL219916

>  <assay_type>  (285) 
B

>  <src_id>  (285) 
15

>  <ligand_efficiency>  (285) 
{u'le': u'0.39', u'bei': u'20.14', u'sei': u'12.63', u'lle': u'6.13'}

>  <standard_flag>  (285) 
True

>  <molecule_chembl_id>  (285) 
CHEMBL219916

>  <target_organism>  (285) 
Homo sapiens

>  <standard_units>  (285) 
nM

>  <record_id>  (285) 
1539713

>  <document_chembl_id>  (285) 
CHEMBL1909046

>  <bao_format>  (285) 
BAO_0000249

>  <data_validity_description>  (285) 
None

>  <activity_id>  (285) 
7709506

>  <standard_type>  (285) 
IC50

>  <target_chembl_id>  (285) 
CHEMBL217

>  <data_validity_comment>  (285) 
None

>  <published_value>  (285) 
0.002647

>  <document_year>  (285) 
None

>  <target_pref_name>  (285) 
Dopamine D2 receptor

>  <assay_chembl_id>  (285) 
CHEMBL1909140

>  <standard_relation>  (285) 
=

>  <assay_description>  (285) 
DRUGMATRIX: Dopamine D2L radioligand binding (ligand: [3H] Spiperone)

>  <published_relation>  (285) 
=

>  <standard_value>  (285) 
2.647

>  <qudt_units>  (285) 
http://www.openphacts.org/units/Nanomolar

>  <target_tax_id>  (285) 
9606

>  <bao_label>  (285) 
cell membrane format

>  <published_units>  (285) 
uM

>  <pchembl_value>  (285) 
8.58

>  <published_type>  (285) 
IC50

>  <activity_comment>  (285) 
None

$$$$

     RDKit          

 30 33  0  0  0  0  0  0  0  0999 V2000
    0.0000    0.0000    0.0000 C   0  0  0  0  0  0  0  0  0  0  0  0
    0.0000    0.0000    0.0000 O   0  0  0  0  0  0  0  0  0  0  0  0
    0.0000    0.0000    0.0000 C   0  0  0  0  0  0  0  0  0  0  0  0
    0.0000    0.0000    0.0000 C   0  0  0  0  0  0  0  0  0  0  0  0
    0.0000    0.0000    0.0000 C   0  0  0  0  0  0  0  0  0  0  0  0
    0.0000    0.0000    0.0000 C   0  0  0  0  0  0  0  0  0  0  0  0
    0.0000    0.0000    0.0000 C   0  0  0  0  0  0  0  0  0  0  0  0
    0.0000    0.0000    0.0000 C   0  0  0  0  0  0  0  0  0  0  0  0
    0.0000    0.0000    0.0000 O   0  0  0  0  0  0  0  0  0  0  0  0
    0.0000    0.0000    0.0000 C   0  0  0  0  0  0  0  0  0  0  0  0
    0.0000    0.0000    0.0000 C   0  0  0  0  0  0  0  0  0  0  0  0
    0.0000    0.0000    0.0000 N   0  0  0  0  0  0  0  0  0  0  0  0
    0.0000    0.0000    0.0000 C   0  0  0  0  0  0  0  0  0  0  0  0
    0.0000    0.0000    0.0000 C   0  0  0  0  0  0  0  0  0  0  0  0
    0.0000    0.0000    0.0000 O   0  0  0  0  0  0  0  0  0  0  0  0
    0.0000    0.0000    0.0000 C   0  0  0  0  0  0  0  0  0  0  0  0
    0.0000    0.0000    0.0000 O   0  0  0  0  0  0  0  0  0  0  0  0
    0.0000    0.0000    0.0000 C   0  0  0  0  0  0  0  0  0  0  0  0
    0.0000    0.0000    0.0000 C   0  0  0  0  0  0  0  0  0  0  0  0
    0.0000    0.0000    0.0000 C   0  0  0  0  0  0  0  0  0  0  0  0
    0.0000    0.0000    0.0000 C   0  0  0  0  0  0  0  0  0  0  0  0
    0.0000    0.0000    0.0000 C   0  0  0  0  0  0  0  0  0  0  0  0
    0.0000    0.0000    0.0000 N   0  0  0  0  0  0  0  0  0  0  0  0
    0.0000    0.0000    0.0000 C   0  0  0  0  0  0  0  0  0  0  0  0
    0.0000    0.0000    0.0000 C   0  0  0  0  0  0  0  0  0  0  0  0
    0.0000    0.0000    0.0000 C   0  0  0  0  0  0  0  0  0  0  0  0
    0.0000    0.0000    0.0000 C   0  0  0  0  0  0  0  0  0  0  0  0
    0.0000    0.0000    0.0000 C   0  0  0  0  0  0  0  0  0  0  0  0
    0.0000    0.0000    0.0000 C   0  0  0  0  0  0  0  0  0  0  0  0
    0.0000    0.0000    0.0000 C   0  0  0  0  0  0  0  0  0  0  0  0
  1  2  1  0
  2  3  1  0
  3  4  2  0
  4  5  1  0
  5  6  2  0
  6  7  1  0
  7  8  2  0
  8  9  1  0
  9 10  1  0
 10 11  1  0
 11 12  1  0
 12 13  1  0
 13 14  1  0
 14 15  1  0
 14 16  1  0
 16 17  1  0
 17 18  1  0
 18 19  2  0
 19 20  1  0
 20 21  2  0
 21 22  1  0
 22 23  1  0
 23 24  1  0
 24 25  2  0
 25 26  1  0
 26 27  2  0
 27 28  1  0
 28 29  2  0
 29 30  1  0
  8  3  1  0
 30 18  1  0
 30 22  2  0
 29 24  1  0
M  END
>  <pIC50>  (286) 
6.84

>  <ChEMBL_ID>  (286) 
CHEMBL723

>  <document_journal>  (286) 
None

>  <bao_endpoint>  (286) 
BAO_0000190

>  <potential_duplicate>  (286) 
False

>  <uo_units>  (286) 
UO_0000065

>  <canonical_smiles>  (286) 
COc1ccccc1OCCNCC(O)COc2cccc3[nH]c4ccccc4c23

>  <parent_molecule_chembl_id>  (286) 
CHEMBL723

>  <assay_type>  (286) 
B

>  <src_id>  (286) 
15

>  <ligand_efficiency>  (286) 
{u'le': u'0.31', u'bei': u'16.82', u'sei': u'9.03', u'lle': u'2.83'}

>  <standard_flag>  (286) 
True

>  <molecule_chembl_id>  (286) 
CHEMBL723

>  <target_organism>  (286) 
Homo sapiens

>  <standard_units>  (286) 
nM

>  <record_id>  (286) 
1539591

>  <document_chembl_id>  (286) 
CHEMBL1909046

>  <bao_format>  (286) 
BAO_0000249

>  <data_validity_description>  (286) 
None

>  <activity_id>  (286) 
7711918

>  <standard_type>  (286) 
IC50

>  <target_chembl_id>  (286) 
CHEMBL217

>  <data_validity_comment>  (286) 
None

>  <published_value>  (286) 
0.146

>  <document_year>  (286) 
None

>  <target_pref_name>  (286) 
Dopamine D2 receptor

>  <assay_chembl_id>  (286) 
CHEMBL1909140

>  <standard_relation>  (286) 
=

>  <assay_description>  (286) 
DRUGMATRIX: Dopamine D2L radioligand binding (ligand: [3H] Spiperone)

>  <published_relation>  (286) 
=

>  <standard_value>  (286) 
146

>  <qudt_units>  (286) 
http://www.openphacts.org/units/Nanomolar

>  <target_tax_id>  (286) 
9606

>  <bao_label>  (286) 
cell membrane format

>  <published_units>  (286) 
uM

>  <pchembl_value>  (286) 
6.84

>  <published_type>  (286) 
IC50

>  <activity_comment>  (286) 
None

$$$$

     RDKit          

 20 22  0  0  0  0  0  0  0  0999 V2000
    0.0000    0.0000    0.0000 C   0  0  0  0  0  0  0  0  0  0  0  0
    0.0000    0.0000    0.0000 N   0  0  0  0  0  0  0  0  0  0  0  0
    0.0000    0.0000    0.0000 C   0  0  0  0  0  0  0  0  0  0  0  0
    0.0000    0.0000    0.0000 C   0  0  0  0  0  0  0  0  0  0  0  0
    0.0000    0.0000    0.0000 C   0  0  0  0  0  0  0  0  0  0  0  0
    0.0000    0.0000    0.0000 C   0  0  0  0  0  0  0  0  0  0  0  0
    0.0000    0.0000    0.0000 N   0  0  0  0  0  0  0  0  0  0  0  0
    0.0000    0.0000    0.0000 C   0  0  0  0  0  0  0  0  0  0  0  0
    0.0000    0.0000    0.0000 C   0  0  0  0  0  0  0  0  0  0  0  0
    0.0000    0.0000    0.0000 C   0  0  0  0  0  0  0  0  0  0  0  0
    0.0000    0.0000    0.0000 C   0  0  0  0  0  0  0  0  0  0  0  0
    0.0000    0.0000    0.0000 C   0  0  0  0  0  0  0  0  0  0  0  0
    0.0000    0.0000    0.0000 C   0  0  0  0  0  0  0  0  0  0  0  0
    0.0000    0.0000    0.0000 S   0  0  0  0  0  0  0  0  0  0  0  0
    0.0000    0.0000    0.0000 C   0  0  0  0  0  0  0  0  0  0  0  0
    0.0000    0.0000    0.0000 C   0  0  0  0  0  0  0  0  0  0  0  0
    0.0000    0.0000    0.0000 C   0  0  0  0  0  0  0  0  0  0  0  0
    0.0000    0.0000    0.0000 C   0  0  0  0  0  0  0  0  0  0  0  0
    0.0000    0.0000    0.0000 C   0  0  0  0  0  0  0  0  0  0  0  0
    0.0000    0.0000    0.0000 C   0  0  0  0  0  0  0  0  0  0  0  0
  1  2  1  0
  2  3  1  0
  2  4  1  0
  4  5  1  0
  5  6  1  0
  6  7  1  0
  7  8  1  0
  8  9  2  0
  9 10  1  0
 10 11  2  0
 11 12  1  0
 12 13  2  0
 13 14  1  0
 14 15  1  0
 15 16  2  0
 16 17  1  0
 17 18  2  0
 18 19  1  0
 19 20  2  0
 20  7  1  0
 13  8  1  0
 20 15  1  0
M  END
>  <pIC50>  (287) 
6.3

>  <ChEMBL_ID>  (287) 
CHEMBL564

>  <document_journal>  (287) 
None

>  <bao_endpoint>  (287) 
BAO_0000190

>  <potential_duplicate>  (287) 
False

>  <uo_units>  (287) 
UO_0000065

>  <canonical_smiles>  (287) 
CN(C)CCCN1c2ccccc2Sc3ccccc13

>  <parent_molecule_chembl_id>  (287) 
CHEMBL564

>  <assay_type>  (287) 
B

>  <src_id>  (287) 
15

>  <ligand_efficiency>  (287) 
{u'le': u'0.43', u'bei': u'22.14', u'sei': u'19.81', u'lle': u'2.22'}

>  <standard_flag>  (287) 
True

>  <molecule_chembl_id>  (287) 
CHEMBL564

>  <target_organism>  (287) 
Homo sapiens

>  <standard_units>  (287) 
nM

>  <record_id>  (287) 
1540087

>  <document_chembl_id>  (287) 
CHEMBL1909046

>  <bao_format>  (287) 
BAO_0000249

>  <data_validity_description>  (287) 
None

>  <activity_id>  (287) 
7722236

>  <standard_type>  (287) 
IC50

>  <target_chembl_id>  (287) 
CHEMBL217

>  <data_validity_comment>  (287) 
None

>  <published_value>  (287) 
0.505

>  <document_year>  (287) 
None

>  <target_pref_name>  (287) 
Dopamine D2 receptor

>  <assay_chembl_id>  (287) 
CHEMBL1909140

>  <standard_relation>  (287) 
=

>  <assay_description>  (287) 
DRUGMATRIX: Dopamine D2L radioligand binding (ligand: [3H] Spiperone)

>  <published_relation>  (287) 
=

>  <standard_value>  (287) 
505

>  <qudt_units>  (287) 
http://www.openphacts.org/units/Nanomolar

>  <target_tax_id>  (287) 
9606

>  <bao_label>  (287) 
cell membrane format

>  <published_units>  (287) 
uM

>  <pchembl_value>  (287) 
6.3

>  <published_type>  (287) 
IC50

>  <activity_comment>  (287) 
None

$$$$

     RDKit          

 20 22  0  0  0  0  0  0  0  0999 V2000
    0.0000    0.0000    0.0000 C   0  0  0  0  0  0  0  0  0  0  0  0
    0.0000    0.0000    0.0000 C   0  0  0  0  0  0  0  0  0  0  0  0
    0.0000    0.0000    0.0000 C   0  0  0  0  0  0  0  0  0  0  0  0
    0.0000    0.0000    0.0000 N   0  0  0  0  0  0  0  0  0  0  0  0
    0.0000    0.0000    0.0000 C   0  0  0  0  0  0  0  0  0  0  0  0
    0.0000    0.0000    0.0000 C   0  0  0  0  0  0  0  0  0  0  0  0
    0.0000    0.0000    0.0000 C   0  0  0  0  0  0  0  0  0  0  0  0
    0.0000    0.0000    0.0000 C   0  0  0  0  0  0  0  0  0  0  0  0
    0.0000    0.0000    0.0000 C   0  0  0  0  0  0  0  0  0  0  0  0
    0.0000    0.0000    0.0000 C   0  0  0  0  0  0  0  0  0  0  0  0
    0.0000    0.0000    0.0000 S   0  0  0  0  0  0  0  0  0  0  0  0
    0.0000    0.0000    0.0000 C   0  0  0  0  0  0  0  0  0  0  0  0
    0.0000    0.0000    0.0000 C   0  0  0  0  0  0  0  0  0  0  0  0
    0.0000    0.0000    0.0000 C   0  0  0  0  0  0  0  0  0  0  0  0
    0.0000    0.0000    0.0000 C   0  0  0  0  0  0  0  0  0  0  0  0
    0.0000    0.0000    0.0000 C   0  0  0  0  0  0  0  0  0  0  0  0
    0.0000    0.0000    0.0000 C   0  0  0  0  0  0  0  0  0  0  0  0
    0.0000    0.0000    0.0000 N   0  0  0  0  0  0  0  0  0  0  0  0
    0.0000    0.0000    0.0000 C   0  0  0  0  0  0  0  0  0  0  0  0
    0.0000    0.0000    0.0000 C   0  0  0  0  0  0  0  0  0  0  0  0
  1  2  1  0
  2  3  1  0
  3  4  1  0
  4  5  1  0
  5  6  2  0
  6  7  1  0
  7  8  2  0
  8  9  1  0
  9 10  2  0
 10 11  1  0
 11 12  1  0
 12 13  2  0
 13 14  1  0
 14 15  2  0
 15 16  1  0
 16 17  2  0
  2 18  1  0
 18 19  1  0
 18 20  1  0
 17  4  1  0
 10  5  1  0
 17 12  1  0
M  END
>  <pIC50>  (288) 
6.555

>  <ChEMBL_ID>  (288) 
CHEMBL643

>  <document_journal>  (288) 
None

>  <bao_endpoint>  (288) 
BAO_0000190

>  <potential_duplicate>  (288) 
False

>  <uo_units>  (288) 
UO_0000065

>  <canonical_smiles>  (288) 
CC(CN1c2ccccc2Sc3ccccc13)N(C)C

>  <parent_molecule_chembl_id>  (288) 
CHEMBL643

>  <assay_type>  (288) 
B

>  <src_id>  (288) 
15

>  <ligand_efficiency>  (288) 
{u'le': u'0.42', u'bei': u'21.48', u'sei': u'19.22', u'lle': u'1.72'}

>  <standard_flag>  (288) 
True

>  <molecule_chembl_id>  (288) 
CHEMBL643

>  <target_organism>  (288) 
Homo sapiens

>  <standard_units>  (288) 
nM

>  <record_id>  (288) 
1540088

>  <document_chembl_id>  (288) 
CHEMBL1909046

>  <bao_format>  (288) 
BAO_0000249

>  <data_validity_description>  (288) 
None

>  <activity_id>  (288) 
7726468

>  <standard_type>  (288) 
IC50

>  <target_chembl_id>  (288) 
CHEMBL217

>  <data_validity_comment>  (288) 
None

>  <published_value>  (288) 
0.779

>  <document_year>  (288) 
None

>  <target_pref_name>  (288) 
Dopamine D2 receptor

>  <assay_chembl_id>  (288) 
CHEMBL1909140

>  <standard_relation>  (288) 
=

>  <assay_description>  (288) 
DRUGMATRIX: Dopamine D2L radioligand binding (ligand: [3H] Spiperone)

>  <published_relation>  (288) 
=

>  <standard_value>  (288) 
779

>  <qudt_units>  (288) 
http://www.openphacts.org/units/Nanomolar

>  <target_tax_id>  (288) 
9606

>  <bao_label>  (288) 
cell membrane format

>  <published_units>  (288) 
uM

>  <pchembl_value>  (288) 
6.11

>  <published_type>  (288) 
IC50

>  <activity_comment>  (288) 
None

$$$$

     RDKit          

 22 25  0  0  0  0  0  0  0  0999 V2000
    0.0000    0.0000    0.0000 C   0  0  0  0  0  0  0  0  0  0  0  0
    0.0000    0.0000    0.0000 C   0  0  0  0  0  0  0  0  0  0  0  0
    0.0000    0.0000    0.0000 C   0  0  0  0  0  0  0  0  0  0  0  0
    0.0000    0.0000    0.0000 N   0  0  0  0  0  0  0  0  0  0  0  0
    0.0000    0.0000    0.0000 C   0  0  0  0  0  0  0  0  0  0  0  0
    0.0000    0.0000    0.0000 C   0  0  0  0  0  0  0  0  0  0  0  0
    0.0000    0.0000    0.0000 C   0  0  0  0  0  0  0  0  0  0  0  0
    0.0000    0.0000    0.0000 S   0  0  0  0  0  0  0  0  0  0  0  0
    0.0000    0.0000    0.0000 C   0  0  0  0  0  0  0  0  0  0  0  0
    0.0000    0.0000    0.0000 C   0  0  0  0  0  0  0  0  0  0  0  0
    0.0000    0.0000    0.0000 C   0  0  0  0  0  0  0  0  0  0  0  0
    0.0000    0.0000    0.0000 C   0  0  0  0  0  0  0  0  0  0  0  0
    0.0000    0.0000    0.0000 C   0  0  0  0  0  0  0  0  0  0  0  0
    0.0000    0.0000    0.0000 C   0  0  0  0  0  0  0  0  0  0  0  0
    0.0000    0.0000    0.0000 C   0  0  0  0  0  0  0  0  0  0  0  0
    0.0000    0.0000    0.0000 N   0  0  0  0  0  0  0  0  0  0  0  0
    0.0000    0.0000    0.0000 C   0  0  0  0  0  0  0  0  0  0  0  0
    0.0000    0.0000    0.0000 C   0  0  0  0  0  0  0  0  0  0  0  0
    0.0000    0.0000    0.0000 C   0  0  0  0  0  0  0  0  0  0  0  0
    0.0000    0.0000    0.0000 C   0  0  0  0  0  0  0  0  0  0  0  0
    0.0000    0.0000    0.0000 C   0  0  0  0  0  0  0  0  0  0  0  0
    0.0000    0.0000    0.0000 C   0  0  0  0  0  0  0  0  0  0  0  0
  1  2  1  0
  2  3  1  0
  3  4  1  0
  4  5  1  0
  5  6  1  0
  6  7  1  0
  7  8  1  0
  8  9  1  0
  6 10  1  0
 10 11  1  0
 11 12  1  0
 12 13  1  0
 13 14  1  0
 14 15  2  0
 15 16  1  0
 16 17  1  0
 17 18  2  0
 18 19  1  0
 19 20  2  0
 20 21  1  0
 21 22  2  0
 12  4  1  0
 21 11  1  0
 22 14  1  0
 22 17  1  0
M  END
>  <pIC50>  (289) 
6.96

>  <ChEMBL_ID>  (289) 
CHEMBL531

>  <document_journal>  (289) 
None

>  <bao_endpoint>  (289) 
BAO_0000190

>  <potential_duplicate>  (289) 
False

>  <uo_units>  (289) 
UO_0000065

>  <canonical_smiles>  (289) 
CCCN1C[C@H](CSC)C[C@H]2[C@H]1Cc3c[nH]c4cccc2c34

>  <parent_molecule_chembl_id>  (289) 
CHEMBL531

>  <assay_type>  (289) 
B

>  <src_id>  (289) 
15

>  <ligand_efficiency>  (289) 
{u'le': u'0.43', u'bei': u'22.11', u'sei': u'15.69', u'lle': u'2.84'}

>  <standard_flag>  (289) 
True

>  <molecule_chembl_id>  (289) 
CHEMBL531

>  <target_organism>  (289) 
Homo sapiens

>  <standard_units>  (289) 
nM

>  <record_id>  (289) 
1540040

>  <document_chembl_id>  (289) 
CHEMBL1909046

>  <bao_format>  (289) 
BAO_0000249

>  <data_validity_description>  (289) 
None

>  <activity_id>  (289) 
7727833

>  <standard_type>  (289) 
IC50

>  <target_chembl_id>  (289) 
CHEMBL217

>  <data_validity_comment>  (289) 
None

>  <published_value>  (289) 
0.111

>  <document_year>  (289) 
None

>  <target_pref_name>  (289) 
Dopamine D2 receptor

>  <assay_chembl_id>  (289) 
CHEMBL1909140

>  <standard_relation>  (289) 
=

>  <assay_description>  (289) 
DRUGMATRIX: Dopamine D2L radioligand binding (ligand: [3H] Spiperone)

>  <published_relation>  (289) 
=

>  <standard_value>  (289) 
111

>  <qudt_units>  (289) 
http://www.openphacts.org/units/Nanomolar

>  <target_tax_id>  (289) 
9606

>  <bao_label>  (289) 
cell membrane format

>  <published_units>  (289) 
uM

>  <pchembl_value>  (289) 
6.96

>  <published_type>  (289) 
IC50

>  <activity_comment>  (289) 
None

$$$$

     RDKit          

 27 30  0  0  0  0  0  0  0  0999 V2000
    0.0000    0.0000    0.0000 N   0  0  0  0  0  0  0  0  0  0  0  0
    0.0000    0.0000    0.0000 C   0  0  0  0  0  0  0  0  0  0  0  0
    0.0000    0.0000    0.0000 O   0  0  0  0  0  0  0  0  0  0  0  0
    0.0000    0.0000    0.0000 C   0  0  0  0  0  0  0  0  0  0  0  0
    0.0000    0.0000    0.0000 C   0  0  0  0  0  0  0  0  0  0  0  0
    0.0000    0.0000    0.0000 C   0  0  0  0  0  0  0  0  0  0  0  0
    0.0000    0.0000    0.0000 N   0  0  0  0  0  0  0  0  0  0  0  0
    0.0000    0.0000    0.0000 C   0  0  0  0  0  0  0  0  0  0  0  0
    0.0000    0.0000    0.0000 C   0  0  0  0  0  0  0  0  0  0  0  0
    0.0000    0.0000    0.0000 C   0  0  0  0  0  0  0  0  0  0  0  0
    0.0000    0.0000    0.0000 N   0  0  0  0  0  0  0  0  0  0  0  0
    0.0000    0.0000    0.0000 C   0  0  0  0  0  0  0  0  0  0  0  0
    0.0000    0.0000    0.0000 C   0  0  0  0  0  0  0  0  0  0  0  0
    0.0000    0.0000    0.0000 C   0  0  0  0  0  0  0  0  0  0  0  0
    0.0000    0.0000    0.0000 C   0  0  0  0  0  0  0  0  0  0  0  0
    0.0000    0.0000    0.0000 C   0  0  0  0  0  0  0  0  0  0  0  0
    0.0000    0.0000    0.0000 C   0  0  0  0  0  0  0  0  0  0  0  0
    0.0000    0.0000    0.0000 S   0  0  0  0  0  0  0  0  0  0  0  0
    0.0000    0.0000    0.0000 C   0  0  0  0  0  0  0  0  0  0  0  0
    0.0000    0.0000    0.0000 C   0  0  0  0  0  0  0  0  0  0  0  0
    0.0000    0.0000    0.0000 C   0  0  0  0  0  0  0  0  0  0  0  0
    0.0000    0.0000    0.0000 C   0  0  0  0  0  0  0  0  0  0  0  0
    0.0000    0.0000    0.0000 Cl  0  0  0  0  0  0  0  0  0  0  0  0
    0.0000    0.0000    0.0000 C   0  0  0  0  0  0  0  0  0  0  0  0
    0.0000    0.0000    0.0000 C   0  0  0  0  0  0  0  0  0  0  0  0
    0.0000    0.0000    0.0000 C   0  0  0  0  0  0  0  0  0  0  0  0
    0.0000    0.0000    0.0000 C   0  0  0  0  0  0  0  0  0  0  0  0
  1  2  1  0
  2  3  2  0
  2  4  1  0
  4  5  1  0
  5  6  1  0
  6  7  1  0
  7  8  1  0
  8  9  1  0
  9 10  1  0
 10 11  1  0
 11 12  1  0
 12 13  2  0
 13 14  1  0
 14 15  2  0
 15 16  1  0
 16 17  2  0
 17 18  1  0
 18 19  1  0
 19 20  2  0
 20 21  1  0
 21 22  2  0
 22 23  1  0
 22 24  1  0
 24 25  2  0
  7 26  1  0
 26 27  1  0
 27  4  1  0
 25 11  1  0
 17 12  1  0
 25 19  1  0
M  END
>  <pIC50>  (290) 
8.39

>  <ChEMBL_ID>  (290) 
CHEMBL1909072

>  <document_journal>  (290) 
None

>  <bao_endpoint>  (290) 
BAO_0000190

>  <potential_duplicate>  (290) 
False

>  <uo_units>  (290) 
UO_0000065

>  <canonical_smiles>  (290) 
NC(=O)C1CCN(CCCN2c3ccccc3Sc4ccc(Cl)cc24)CC1

>  <parent_molecule_chembl_id>  (290) 
CHEMBL1909072

>  <assay_type>  (290) 
B

>  <src_id>  (290) 
15

>  <ligand_efficiency>  (290) 
{u'le': u'0.42', u'bei': u'20.88', u'sei': u'11.21', u'lle': u'4.18'}

>  <standard_flag>  (290) 
True

>  <molecule_chembl_id>  (290) 
CHEMBL1909072

>  <target_organism>  (290) 
Homo sapiens

>  <standard_units>  (290) 
nM

>  <record_id>  (290) 
1540058

>  <document_chembl_id>  (290) 
CHEMBL1909046

>  <bao_format>  (290) 
BAO_0000249

>  <data_validity_description>  (290) 
None

>  <activity_id>  (290) 
7734603

>  <standard_type>  (290) 
IC50

>  <target_chembl_id>  (290) 
CHEMBL217

>  <data_validity_comment>  (290) 
None

>  <published_value>  (290) 
0.00405

>  <document_year>  (290) 
None

>  <target_pref_name>  (290) 
Dopamine D2 receptor

>  <assay_chembl_id>  (290) 
CHEMBL1909140

>  <standard_relation>  (290) 
=

>  <assay_description>  (290) 
DRUGMATRIX: Dopamine D2L radioligand binding (ligand: [3H] Spiperone)

>  <published_relation>  (290) 
=

>  <standard_value>  (290) 
4.05

>  <qudt_units>  (290) 
http://www.openphacts.org/units/Nanomolar

>  <target_tax_id>  (290) 
9606

>  <bao_label>  (290) 
cell membrane format

>  <published_units>  (290) 
uM

>  <pchembl_value>  (290) 
8.39

>  <published_type>  (290) 
IC50

>  <activity_comment>  (290) 
None

$$$$

     RDKit          

 22 25  0  0  0  0  0  0  0  0999 V2000
    0.0000    0.0000    0.0000 C   0  0  0  0  0  0  0  0  0  0  0  0
    0.0000    0.0000    0.0000 N   0  0  0  0  0  0  0  0  0  0  0  0
    0.0000    0.0000    0.0000 C   0  0  0  0  0  0  0  0  0  0  0  0
    0.0000    0.0000    0.0000 C   0  0  0  0  0  0  0  0  0  0  0  0
    0.0000    0.0000    0.0000 N   0  0  0  0  0  0  0  0  0  0  0  0
    0.0000    0.0000    0.0000 C   0  0  0  0  0  0  0  0  0  0  0  0
    0.0000    0.0000    0.0000 C   0  0  0  0  0  0  0  0  0  0  0  0
    0.0000    0.0000    0.0000 C   0  0  0  0  0  0  0  0  0  0  0  0
    0.0000    0.0000    0.0000 N   0  0  0  0  0  0  0  0  0  0  0  0
    0.0000    0.0000    0.0000 C   0  0  0  0  0  0  0  0  0  0  0  0
    0.0000    0.0000    0.0000 C   0  0  0  0  0  0  0  0  0  0  0  0
    0.0000    0.0000    0.0000 C   0  0  0  0  0  0  0  0  0  0  0  0
    0.0000    0.0000    0.0000 C   0  0  0  0  0  0  0  0  0  0  0  0
    0.0000    0.0000    0.0000 C   0  0  0  0  0  0  0  0  0  0  0  0
    0.0000    0.0000    0.0000 C   0  0  0  0  0  0  0  0  0  0  0  0
    0.0000    0.0000    0.0000 N   0  0  0  0  0  0  0  0  0  0  0  0
    0.0000    0.0000    0.0000 C   0  0  0  0  0  0  0  0  0  0  0  0
    0.0000    0.0000    0.0000 S   0  0  0  0  0  0  0  0  0  0  0  0
    0.0000    0.0000    0.0000 C   0  0  0  0  0  0  0  0  0  0  0  0
    0.0000    0.0000    0.0000 C   0  0  0  0  0  0  0  0  0  0  0  0
    0.0000    0.0000    0.0000 C   0  0  0  0  0  0  0  0  0  0  0  0
    0.0000    0.0000    0.0000 C   0  0  0  0  0  0  0  0  0  0  0  0
  1  2  1  0
  2  3  1  0
  3  4  1  0
  4  5  1  0
  5  6  1  0
  6  7  1  0
  5  8  1  0
  8  9  2  0
  9 10  1  0
 10 11  2  0
 11 12  1  0
 12 13  2  0
 13 14  1  0
 14 15  2  0
 15 16  1  0
 16 17  1  0
 17 18  1  0
 18 19  1  0
 19 20  1  0
 19 21  2  0
 21 22  1  0
  7  2  1  0
 22  8  1  0
 15 10  1  0
 22 17  2  0
M  END
>  <pIC50>  (291) 
7.465

>  <ChEMBL_ID>  (291) 
CHEMBL715

>  <document_journal>  (291) 
None

>  <bao_endpoint>  (291) 
BAO_0000190

>  <potential_duplicate>  (291) 
False

>  <uo_units>  (291) 
UO_0000065

>  <canonical_smiles>  (291) 
CN1CCN(CC1)C2=Nc3ccccc3Nc4sc(C)cc24

>  <parent_molecule_chembl_id>  (291) 
CHEMBL715

>  <assay_type>  (291) 
B

>  <src_id>  (291) 
15

>  <ligand_efficiency>  (291) 
{u'le': u'0.43', u'bei': u'22.17', u'sei': u'11.72', u'lle': u'4.24'}

>  <standard_flag>  (291) 
True

>  <molecule_chembl_id>  (291) 
CHEMBL715

>  <target_organism>  (291) 
Homo sapiens

>  <standard_units>  (291) 
nM

>  <record_id>  (291) 
1540010

>  <document_chembl_id>  (291) 
CHEMBL1909046

>  <bao_format>  (291) 
BAO_0000249

>  <data_validity_description>  (291) 
None

>  <activity_id>  (291) 
7735858

>  <standard_type>  (291) 
IC50

>  <target_chembl_id>  (291) 
CHEMBL217

>  <data_validity_comment>  (291) 
None

>  <published_value>  (291) 
0.118

>  <document_year>  (291) 
None

>  <target_pref_name>  (291) 
Dopamine D2 receptor

>  <assay_chembl_id>  (291) 
CHEMBL1909140

>  <standard_relation>  (291) 
=

>  <assay_description>  (291) 
DRUGMATRIX: Dopamine D2L radioligand binding (ligand: [3H] Spiperone)

>  <published_relation>  (291) 
=

>  <standard_value>  (291) 
118

>  <qudt_units>  (291) 
http://www.openphacts.org/units/Nanomolar

>  <target_tax_id>  (291) 
9606

>  <bao_label>  (291) 
cell membrane format

>  <published_units>  (291) 
uM

>  <pchembl_value>  (291) 
6.93

>  <published_type>  (291) 
IC50

>  <activity_comment>  (291) 
None

$$$$

     RDKit          

 27 30  0  0  0  0  0  0  0  0999 V2000
    0.0000    0.0000    0.0000 O   0  0  0  0  0  0  0  0  0  0  0  0
    0.0000    0.0000    0.0000 C   0  0  0  0  0  0  0  0  0  0  0  0
    0.0000    0.0000    0.0000 C   0  0  0  0  0  0  0  0  0  0  0  0
    0.0000    0.0000    0.0000 O   0  0  0  0  0  0  0  0  0  0  0  0
    0.0000    0.0000    0.0000 C   0  0  0  0  0  0  0  0  0  0  0  0
    0.0000    0.0000    0.0000 C   0  0  0  0  0  0  0  0  0  0  0  0
    0.0000    0.0000    0.0000 N   0  0  0  0  0  0  0  0  0  0  0  0
    0.0000    0.0000    0.0000 C   0  0  0  0  0  0  0  0  0  0  0  0
    0.0000    0.0000    0.0000 C   0  0  0  0  0  0  0  0  0  0  0  0
    0.0000    0.0000    0.0000 N   0  0  0  0  0  0  0  0  0  0  0  0
    0.0000    0.0000    0.0000 C   0  0  0  0  0  0  0  0  0  0  0  0
    0.0000    0.0000    0.0000 C   0  0  0  0  0  0  0  0  0  0  0  0
    0.0000    0.0000    0.0000 C   0  0  0  0  0  0  0  0  0  0  0  0
    0.0000    0.0000    0.0000 N   0  0  0  0  0  0  0  0  0  0  0  0
    0.0000    0.0000    0.0000 C   0  0  0  0  0  0  0  0  0  0  0  0
    0.0000    0.0000    0.0000 C   0  0  0  0  0  0  0  0  0  0  0  0
    0.0000    0.0000    0.0000 C   0  0  0  0  0  0  0  0  0  0  0  0
    0.0000    0.0000    0.0000 C   0  0  0  0  0  0  0  0  0  0  0  0
    0.0000    0.0000    0.0000 C   0  0  0  0  0  0  0  0  0  0  0  0
    0.0000    0.0000    0.0000 C   0  0  0  0  0  0  0  0  0  0  0  0
    0.0000    0.0000    0.0000 S   0  0  0  0  0  0  0  0  0  0  0  0
    0.0000    0.0000    0.0000 C   0  0  0  0  0  0  0  0  0  0  0  0
    0.0000    0.0000    0.0000 C   0  0  0  0  0  0  0  0  0  0  0  0
    0.0000    0.0000    0.0000 C   0  0  0  0  0  0  0  0  0  0  0  0
    0.0000    0.0000    0.0000 C   0  0  0  0  0  0  0  0  0  0  0  0
    0.0000    0.0000    0.0000 C   0  0  0  0  0  0  0  0  0  0  0  0
    0.0000    0.0000    0.0000 C   0  0  0  0  0  0  0  0  0  0  0  0
  1  2  1  0
  2  3  1  0
  3  4  1  0
  4  5  1  0
  5  6  1  0
  6  7  1  0
  7  8  1  0
  8  9  1  0
  9 10  1  0
 10 11  1  0
 11 12  1  0
 10 13  1  0
 13 14  2  0
 14 15  1  0
 15 16  2  0
 16 17  1  0
 17 18  2  0
 18 19  1  0
 19 20  2  0
 20 21  1  0
 21 22  1  0
 22 23  2  0
 23 24  1  0
 24 25  2  0
 25 26  1  0
 26 27  2  0
 12  7  1  0
 27 13  1  0
 20 15  1  0
 27 22  1  0
M  END
>  <pIC50>  (292) 
5.88

>  <ChEMBL_ID>  (292) 
CHEMBL716

>  <document_journal>  (292) 
None

>  <bao_endpoint>  (292) 
BAO_0000190

>  <potential_duplicate>  (292) 
False

>  <uo_units>  (292) 
UO_0000065

>  <canonical_smiles>  (292) 
OCCOCCN1CCN(CC1)C2=Nc3ccccc3Sc4ccccc24

>  <parent_molecule_chembl_id>  (292) 
CHEMBL716

>  <assay_type>  (292) 
B

>  <src_id>  (292) 
15

>  <ligand_efficiency>  (292) 
{u'le': u'0.3', u'bei': u'15.32', u'sei': u'7.98', u'lle': u'3.22'}

>  <standard_flag>  (292) 
True

>  <molecule_chembl_id>  (292) 
CHEMBL716

>  <target_organism>  (292) 
Homo sapiens

>  <standard_units>  (292) 
nM

>  <record_id>  (292) 
1540100

>  <document_chembl_id>  (292) 
CHEMBL1909046

>  <bao_format>  (292) 
BAO_0000249

>  <data_validity_description>  (292) 
None

>  <activity_id>  (292) 
7741681

>  <standard_type>  (292) 
IC50

>  <target_chembl_id>  (292) 
CHEMBL217

>  <data_validity_comment>  (292) 
None

>  <published_value>  (292) 
1.3299

>  <document_year>  (292) 
None

>  <target_pref_name>  (292) 
Dopamine D2 receptor

>  <assay_chembl_id>  (292) 
CHEMBL1909140

>  <standard_relation>  (292) 
=

>  <assay_description>  (292) 
DRUGMATRIX: Dopamine D2L radioligand binding (ligand: [3H] Spiperone)

>  <published_relation>  (292) 
=

>  <standard_value>  (292) 
1329.9

>  <qudt_units>  (292) 
http://www.openphacts.org/units/Nanomolar

>  <target_tax_id>  (292) 
9606

>  <bao_label>  (292) 
cell membrane format

>  <published_units>  (292) 
uM

>  <pchembl_value>  (292) 
5.88

>  <published_type>  (292) 
IC50

>  <activity_comment>  (292) 
None

$$$$

     RDKit          

 25 28  0  0  0  0  0  0  0  0999 V2000
    0.0000    0.0000    0.0000 C   0  0  0  0  0  0  0  0  0  0  0  0
    0.0000    0.0000    0.0000 N   0  0  0  0  0  0  0  0  0  0  0  0
    0.0000    0.0000    0.0000 C   0  0  0  0  0  0  0  0  0  0  0  0
    0.0000    0.0000    0.0000 C   0  0  0  0  0  0  0  0  0  0  0  0
    0.0000    0.0000    0.0000 N   0  0  0  0  0  0  0  0  0  0  0  0
    0.0000    0.0000    0.0000 C   0  0  0  0  0  0  0  0  0  0  0  0
    0.0000    0.0000    0.0000 C   0  0  0  0  0  0  0  0  0  0  0  0
    0.0000    0.0000    0.0000 C   0  0  0  0  0  0  0  0  0  0  0  0
    0.0000    0.0000    0.0000 N   0  0  0  0  0  0  0  0  0  0  0  0
    0.0000    0.0000    0.0000 C   0  0  0  0  0  0  0  0  0  0  0  0
    0.0000    0.0000    0.0000 C   0  0  0  0  0  0  0  0  0  0  0  0
    0.0000    0.0000    0.0000 C   0  0  0  0  0  0  0  0  0  0  0  0
    0.0000    0.0000    0.0000 C   0  0  0  0  0  0  0  0  0  0  0  0
    0.0000    0.0000    0.0000 C   0  0  0  0  0  0  0  0  0  0  0  0
    0.0000    0.0000    0.0000 C   0  0  0  0  0  0  0  0  0  0  0  0
    0.0000    0.0000    0.0000 S   0  0  0  0  0  0  0  0  0  0  0  0
    0.0000    0.0000    0.0000 C   0  0  0  0  0  0  0  0  0  0  0  0
    0.0000    0.0000    0.0000 C   0  0  0  0  0  0  0  0  0  0  0  0
    0.0000    0.0000    0.0000 C   0  0  0  0  0  0  0  0  0  0  0  0
    0.0000    0.0000    0.0000 C   0  0  0  0  0  0  0  0  0  0  0  0
    0.0000    0.0000    0.0000 Cl  0  0  0  0  0  0  0  0  0  0  0  0
    0.0000    0.0000    0.0000 C   0  0  0  0  0  0  0  0  0  0  0  0
    0.0000    0.0000    0.0000 C   0  0  0  0  0  0  0  0  0  0  0  0
    0.0000    0.0000    0.0000 C   0  0  0  0  0  0  0  0  0  0  0  0
    0.0000    0.0000    0.0000 C   0  0  0  0  0  0  0  0  0  0  0  0
  1  2  1  0
  2  3  1  0
  3  4  1  0
  4  5  1  0
  5  6  1  0
  6  7  1  0
  7  8  1  0
  8  9  1  0
  9 10  1  0
 10 11  2  0
 11 12  1  0
 12 13  2  0
 13 14  1  0
 14 15  2  0
 15 16  1  0
 16 17  1  0
 17 18  2  0
 18 19  1  0
 19 20  2  0
 20 21  1  0
 20 22  1  0
 22 23  2  0
  5 24  1  0
 24 25  1  0
 25  2  1  0
 23  9  1  0
 15 10  1  0
 23 17  1  0
M  END
>  <pIC50>  (293) 
7.96

>  <ChEMBL_ID>  (293) 
CHEMBL728

>  <document_journal>  (293) 
None

>  <bao_endpoint>  (293) 
BAO_0000190

>  <potential_duplicate>  (293) 
False

>  <uo_units>  (293) 
UO_0000065

>  <canonical_smiles>  (293) 
CN1CCN(CCCN2c3ccccc3Sc4ccc(Cl)cc24)CC1

>  <parent_molecule_chembl_id>  (293) 
CHEMBL728

>  <assay_type>  (293) 
B

>  <src_id>  (293) 
15

>  <ligand_efficiency>  (293) 
{u'le': u'0.43', u'bei': u'21.28', u'sei': u'22.73', u'lle': u'3.26'}

>  <standard_flag>  (293) 
True

>  <molecule_chembl_id>  (293) 
CHEMBL728

>  <target_organism>  (293) 
Homo sapiens

>  <standard_units>  (293) 
nM

>  <record_id>  (293) 
1540084

>  <document_chembl_id>  (293) 
CHEMBL1909046

>  <bao_format>  (293) 
BAO_0000249

>  <data_validity_description>  (293) 
None

>  <activity_id>  (293) 
7743605

>  <standard_type>  (293) 
IC50

>  <target_chembl_id>  (293) 
CHEMBL217

>  <data_validity_comment>  (293) 
None

>  <published_value>  (293) 
0.011

>  <document_year>  (293) 
None

>  <target_pref_name>  (293) 
Dopamine D2 receptor

>  <assay_chembl_id>  (293) 
CHEMBL1909140

>  <standard_relation>  (293) 
=

>  <assay_description>  (293) 
DRUGMATRIX: Dopamine D2L radioligand binding (ligand: [3H] Spiperone)

>  <published_relation>  (293) 
=

>  <standard_value>  (293) 
11

>  <qudt_units>  (293) 
http://www.openphacts.org/units/Nanomolar

>  <target_tax_id>  (293) 
9606

>  <bao_label>  (293) 
cell membrane format

>  <published_units>  (293) 
uM

>  <pchembl_value>  (293) 
7.96

>  <published_type>  (293) 
IC50

>  <activity_comment>  (293) 
None

$$$$

     RDKit          

 26 29  0  0  0  0  0  0  0  0999 V2000
    0.0000    0.0000    0.0000 C   0  0  0  0  0  0  0  0  0  0  0  0
    0.0000    0.0000    0.0000 C   0  0  0  0  0  0  0  0  0  0  0  0
    0.0000    0.0000    0.0000 C   0  0  0  0  0  0  0  0  0  0  0  0
    0.0000    0.0000    0.0000 C   0  0  0  0  0  0  0  0  0  0  0  0
    0.0000    0.0000    0.0000 O   0  0  0  0  0  0  0  0  0  0  0  0
    0.0000    0.0000    0.0000 N   0  0  0  0  0  0  0  0  0  0  0  0
    0.0000    0.0000    0.0000 C   0  0  0  0  0  0  0  0  0  0  0  0
    0.0000    0.0000    0.0000 O   0  0  0  0  0  0  0  0  0  0  0  0
    0.0000    0.0000    0.0000 C   0  0  0  0  0  0  0  0  0  0  0  0
    0.0000    0.0000    0.0000 C   0  0  0  0  0  0  0  0  0  0  0  0
    0.0000    0.0000    0.0000 N   0  0  0  0  0  0  0  0  0  0  0  0
    0.0000    0.0000    0.0000 C   0  0  0  0  0  0  0  0  0  0  0  0
    0.0000    0.0000    0.0000 C   0  0  0  0  0  0  0  0  0  0  0  0
    0.0000    0.0000    0.0000 C   0  0  0  0  0  0  0  0  0  0  0  0
    0.0000    0.0000    0.0000 C   0  0  0  0  0  0  0  0  0  0  0  0
    0.0000    0.0000    0.0000 C   0  0  0  0  0  0  0  0  0  0  0  0
    0.0000    0.0000    0.0000 N   0  0  0  0  0  0  0  0  0  0  0  0
    0.0000    0.0000    0.0000 C   0  0  0  0  0  0  0  0  0  0  0  0
    0.0000    0.0000    0.0000 C   0  0  0  0  0  0  0  0  0  0  0  0
    0.0000    0.0000    0.0000 C   0  0  0  0  0  0  0  0  0  0  0  0
    0.0000    0.0000    0.0000 C   0  0  0  0  0  0  0  0  0  0  0  0
    0.0000    0.0000    0.0000 C   0  0  0  0  0  0  0  0  0  0  0  0
    0.0000    0.0000    0.0000 C   0  0  0  0  0  0  0  0  0  0  0  0
    0.0000    0.0000    0.0000 C   0  0  0  0  0  0  0  0  0  0  0  0
    0.0000    0.0000    0.0000 C   0  0  0  0  0  0  0  0  0  0  0  0
    0.0000    0.0000    0.0000 C   0  0  0  0  0  0  0  0  0  0  0  0
  1  2  1  0
  2  3  1  0
  3  4  1  0
  4  5  1  0
  3  6  1  0
  6  7  1  0
  7  8  2  0
  7  9  1  0
  9 10  1  0
 10 11  1  0
 11 12  1  0
 11 13  1  0
 13 14  1  0
 14 15  1  0
 15 16  2  0
 16 17  1  0
 17 18  1  0
 17 19  1  0
 19 20  2  0
 20 21  1  0
 21 22  2  0
 22 23  1  0
 23 24  1  0
 24 25  2  0
 23 26  2  0
 25  9  1  0
 24 13  1  0
 26 15  1  0
 26 19  1  0
M  END
>  <pIC50>  (294) 
6.09

>  <ChEMBL_ID>  (294) 
CHEMBL1065

>  <document_journal>  (294) 
None

>  <bao_endpoint>  (294) 
BAO_0000190

>  <potential_duplicate>  (294) 
False

>  <uo_units>  (294) 
UO_0000065

>  <canonical_smiles>  (294) 
CC[C@@H](CO)NC(=O)[C@H]1CN(C)[C@@H]2Cc3cn(C)c4cccc(C2=C1)c34

>  <parent_molecule_chembl_id>  (294) 
CHEMBL1065

>  <assay_type>  (294) 
B

>  <src_id>  (294) 
15

>  <ligand_efficiency>  (294) 
{u'le': u'0.32', u'bei': u'17.24', u'sei': u'10.6', u'lle': u'3.82'}

>  <standard_flag>  (294) 
True

>  <molecule_chembl_id>  (294) 
CHEMBL1065

>  <target_organism>  (294) 
Homo sapiens

>  <standard_units>  (294) 
nM

>  <record_id>  (294) 
1539940

>  <document_chembl_id>  (294) 
CHEMBL1909046

>  <bao_format>  (294) 
BAO_0000249

>  <data_validity_description>  (294) 
None

>  <activity_id>  (294) 
7747484

>  <standard_type>  (294) 
IC50

>  <target_chembl_id>  (294) 
CHEMBL217

>  <data_validity_comment>  (294) 
None

>  <published_value>  (294) 
0.807

>  <document_year>  (294) 
None

>  <target_pref_name>  (294) 
Dopamine D2 receptor

>  <assay_chembl_id>  (294) 
CHEMBL1909140

>  <standard_relation>  (294) 
=

>  <assay_description>  (294) 
DRUGMATRIX: Dopamine D2L radioligand binding (ligand: [3H] Spiperone)

>  <published_relation>  (294) 
=

>  <standard_value>  (294) 
807

>  <qudt_units>  (294) 
http://www.openphacts.org/units/Nanomolar

>  <target_tax_id>  (294) 
9606

>  <bao_label>  (294) 
cell membrane format

>  <published_units>  (294) 
uM

>  <pchembl_value>  (294) 
6.09

>  <published_type>  (294) 
IC50

>  <activity_comment>  (294) 
None

$$$$

     RDKit          

 21 24  0  0  0  0  0  0  0  0999 V2000
    0.0000    0.0000    0.0000 C   0  0  0  0  0  0  0  0  0  0  0  0
    0.0000    0.0000    0.0000 N   0  0  0  0  0  0  0  0  0  0  0  0
    0.0000    0.0000    0.0000 C   0  0  0  0  0  0  0  0  0  0  0  0
    0.0000    0.0000    0.0000 C   0  0  0  0  0  0  0  0  0  0  0  0
    0.0000    0.0000    0.0000 C   0  0  0  0  0  0  0  0  0  0  0  0
    0.0000    0.0000    0.0000 C   0  0  0  0  0  0  0  0  0  0  0  0
    0.0000    0.0000    0.0000 C   0  0  0  0  0  0  0  0  0  0  0  0
    0.0000    0.0000    0.0000 C   0  0  0  0  0  0  0  0  0  0  0  0
    0.0000    0.0000    0.0000 C   0  0  0  0  0  0  0  0  0  0  0  0
    0.0000    0.0000    0.0000 C   0  0  0  0  0  0  0  0  0  0  0  0
    0.0000    0.0000    0.0000 C   0  0  0  0  0  0  0  0  0  0  0  0
    0.0000    0.0000    0.0000 C   0  0  0  0  0  0  0  0  0  0  0  0
    0.0000    0.0000    0.0000 C   0  0  0  0  0  0  0  0  0  0  0  0
    0.0000    0.0000    0.0000 C   0  0  0  0  0  0  0  0  0  0  0  0
    0.0000    0.0000    0.0000 C   0  0  0  0  0  0  0  0  0  0  0  0
    0.0000    0.0000    0.0000 C   0  0  0  0  0  0  0  0  0  0  0  0
    0.0000    0.0000    0.0000 C   0  0  0  0  0  0  0  0  0  0  0  0
    0.0000    0.0000    0.0000 C   0  0  0  0  0  0  0  0  0  0  0  0
    0.0000    0.0000    0.0000 C   0  0  0  0  0  0  0  0  0  0  0  0
    0.0000    0.0000    0.0000 C   0  0  0  0  0  0  0  0  0  0  0  0
    0.0000    0.0000    0.0000 C   0  0  0  0  0  0  0  0  0  0  0  0
  1  2  1  0
  2  3  1  0
  3  4  1  0
  4  5  1  0
  5  6  1  0
  6  7  1  0
  7  8  1  0
  8  9  1  0
  9 10  1  0
 10 11  2  0
 11 12  1  0
 12 13  2  0
 13 14  1  0
 14 15  2  0
  9 16  1  0
 16 17  2  0
 17 18  1  0
 18 19  2  0
 19 20  1  0
 20 21  2  0
 15  6  1  0
 21  6  1  0
 15 10  1  0
 21 16  1  0
M  END
>  <pIC50>  (295) 
5.46

>  <ChEMBL_ID>  (295) 
CHEMBL21731

>  <document_journal>  (295) 
None

>  <bao_endpoint>  (295) 
BAO_0000190

>  <potential_duplicate>  (295) 
False

>  <uo_units>  (295) 
UO_0000065

>  <canonical_smiles>  (295) 
CNCCCC12CCC(c3ccccc13)c4ccccc24

>  <parent_molecule_chembl_id>  (295) 
CHEMBL21731

>  <assay_type>  (295) 
B

>  <src_id>  (295) 
15

>  <ligand_efficiency>  (295) 
{u'le': u'0.36', u'bei': u'19.68', u'sei': u'45.39', u'lle': u'1.34'}

>  <standard_flag>  (295) 
True

>  <molecule_chembl_id>  (295) 
CHEMBL21731

>  <target_organism>  (295) 
Homo sapiens

>  <standard_units>  (295) 
nM

>  <record_id>  (295) 
1539908

>  <document_chembl_id>  (295) 
CHEMBL1909046

>  <bao_format>  (295) 
BAO_0000249

>  <data_validity_description>  (295) 
None

>  <activity_id>  (295) 
7749063

>  <standard_type>  (295) 
IC50

>  <target_chembl_id>  (295) 
CHEMBL217

>  <data_validity_comment>  (295) 
None

>  <published_value>  (295) 
3.463

>  <document_year>  (295) 
None

>  <target_pref_name>  (295) 
Dopamine D2 receptor

>  <assay_chembl_id>  (295) 
CHEMBL1909140

>  <standard_relation>  (295) 
=

>  <assay_description>  (295) 
DRUGMATRIX: Dopamine D2L radioligand binding (ligand: [3H] Spiperone)

>  <published_relation>  (295) 
=

>  <standard_value>  (295) 
3463

>  <qudt_units>  (295) 
http://www.openphacts.org/units/Nanomolar

>  <target_tax_id>  (295) 
9606

>  <bao_label>  (295) 
cell membrane format

>  <published_units>  (295) 
uM

>  <pchembl_value>  (295) 
5.46

>  <published_type>  (295) 
IC50

>  <activity_comment>  (295) 
None

$$$$

     RDKit          

 20 20  0  0  0  0  0  0  0  0999 V2000
    0.0000    0.0000    0.0000 C   0  0  0  0  0  0  0  0  0  0  0  0
    0.0000    0.0000    0.0000 C   0  0  0  0  0  0  0  0  0  0  0  0
    0.0000    0.0000    0.0000 N   0  0  0  0  0  0  0  0  0  0  0  0
    0.0000    0.0000    0.0000 C   0  0  0  0  0  0  0  0  0  0  0  0
    0.0000    0.0000    0.0000 C   0  0  0  0  0  0  0  0  0  0  0  0
    0.0000    0.0000    0.0000 C   0  0  0  0  0  0  0  0  0  0  0  0
    0.0000    0.0000    0.0000 C   0  0  0  0  0  0  0  0  0  0  0  0
    0.0000    0.0000    0.0000 N   0  0  0  0  0  0  0  0  0  0  0  0
    0.0000    0.0000    0.0000 C   0  0  0  0  0  0  0  0  0  0  0  0
    0.0000    0.0000    0.0000 O   0  0  0  0  0  0  0  0  0  0  0  0
    0.0000    0.0000    0.0000 C   0  0  0  0  0  0  0  0  0  0  0  0
    0.0000    0.0000    0.0000 C   0  0  0  0  0  0  0  0  0  0  0  0
    0.0000    0.0000    0.0000 C   0  0  0  0  0  0  0  0  0  0  0  0
    0.0000    0.0000    0.0000 Cl  0  0  0  0  0  0  0  0  0  0  0  0
    0.0000    0.0000    0.0000 C   0  0  0  0  0  0  0  0  0  0  0  0
    0.0000    0.0000    0.0000 N   0  0  0  0  0  0  0  0  0  0  0  0
    0.0000    0.0000    0.0000 C   0  0  0  0  0  0  0  0  0  0  0  0
    0.0000    0.0000    0.0000 C   0  0  0  0  0  0  0  0  0  0  0  0
    0.0000    0.0000    0.0000 O   0  0  0  0  0  0  0  0  0  0  0  0
    0.0000    0.0000    0.0000 C   0  0  0  0  0  0  0  0  0  0  0  0
  1  2  1  0
  2  3  1  0
  3  4  1  0
  4  5  1  0
  3  6  1  0
  6  7  1  0
  7  8  1  0
  8  9  1  0
  9 10  2  0
  9 11  1  0
 11 12  2  0
 12 13  1  0
 13 14  1  0
 13 15  2  0
 15 16  1  0
 15 17  1  0
 17 18  2  0
 18 19  1  0
 19 20  1  0
 18 11  1  0
M  END
>  <pIC50>  (296) 
6.9

>  <ChEMBL_ID>  (296) 
CHEMBL86

>  <document_journal>  (296) 
None

>  <bao_endpoint>  (296) 
BAO_0000190

>  <potential_duplicate>  (296) 
False

>  <uo_units>  (296) 
UO_0000065

>  <canonical_smiles>  (296) 
CCN(CC)CCNC(=O)c1cc(Cl)c(N)cc1OC

>  <parent_molecule_chembl_id>  (296) 
CHEMBL86

>  <assay_type>  (296) 
B

>  <src_id>  (296) 
15

>  <ligand_efficiency>  (296) 
{u'le': u'0.47', u'bei': u'23', u'sei': u'10.2', u'lle': u'5.12'}

>  <standard_flag>  (296) 
True

>  <molecule_chembl_id>  (296) 
CHEMBL86

>  <target_organism>  (296) 
Homo sapiens

>  <standard_units>  (296) 
nM

>  <record_id>  (296) 
1539941

>  <document_chembl_id>  (296) 
CHEMBL1909046

>  <bao_format>  (296) 
BAO_0000249

>  <data_validity_description>  (296) 
None

>  <activity_id>  (296) 
7751767

>  <standard_type>  (296) 
IC50

>  <target_chembl_id>  (296) 
CHEMBL217

>  <data_validity_comment>  (296) 
None

>  <published_value>  (296) 
0.127

>  <document_year>  (296) 
None

>  <target_pref_name>  (296) 
Dopamine D2 receptor

>  <assay_chembl_id>  (296) 
CHEMBL1909140

>  <standard_relation>  (296) 
=

>  <assay_description>  (296) 
DRUGMATRIX: Dopamine D2L radioligand binding (ligand: [3H] Spiperone)

>  <published_relation>  (296) 
=

>  <standard_value>  (296) 
127

>  <qudt_units>  (296) 
http://www.openphacts.org/units/Nanomolar

>  <target_tax_id>  (296) 
9606

>  <bao_label>  (296) 
cell membrane format

>  <published_units>  (296) 
uM

>  <pchembl_value>  (296) 
6.9

>  <published_type>  (296) 
IC50

>  <activity_comment>  (296) 
None

$$$$

     RDKit          

 25 27  0  0  0  0  0  0  0  0999 V2000
    0.0000    0.0000    0.0000 Cl  0  0  0  0  0  0  0  0  0  0  0  0
    0.0000    0.0000    0.0000 C   0  0  0  0  0  0  0  0  0  0  0  0
    0.0000    0.0000    0.0000 C   0  0  0  0  0  0  0  0  0  0  0  0
    0.0000    0.0000    0.0000 C   0  0  0  0  0  0  0  0  0  0  0  0
    0.0000    0.0000    0.0000 C   0  0  0  0  0  0  0  0  0  0  0  0
    0.0000    0.0000    0.0000 C   0  0  0  0  0  0  0  0  0  0  0  0
    0.0000    0.0000    0.0000 O   0  0  0  0  0  0  0  0  0  0  0  0
    0.0000    0.0000    0.0000 C   0  0  0  0  0  0  0  0  0  0  0  0
    0.0000    0.0000    0.0000 C   0  0  0  0  0  0  0  0  0  0  0  0
    0.0000    0.0000    0.0000 N   0  0  0  0  0  0  0  0  0  0  0  0
    0.0000    0.0000    0.0000 C   0  0  0  0  0  0  0  0  0  0  0  0
    0.0000    0.0000    0.0000 C   0  0  0  0  0  0  0  0  0  0  0  0
    0.0000    0.0000    0.0000 N   0  0  0  0  0  0  0  0  0  0  0  0
    0.0000    0.0000    0.0000 C   0  0  0  0  0  0  0  0  0  0  0  0
    0.0000    0.0000    0.0000 C   0  0  0  0  0  0  0  0  0  0  0  0
    0.0000    0.0000    0.0000 C   0  0  0  0  0  0  0  0  0  0  0  0
    0.0000    0.0000    0.0000 C   0  0  0  0  0  0  0  0  0  0  0  0
    0.0000    0.0000    0.0000 C   0  0  0  0  0  0  0  0  0  0  0  0
    0.0000    0.0000    0.0000 Cl  0  0  0  0  0  0  0  0  0  0  0  0
    0.0000    0.0000    0.0000 C   0  0  0  0  0  0  0  0  0  0  0  0
    0.0000    0.0000    0.0000 C   0  0  0  0  0  0  0  0  0  0  0  0
    0.0000    0.0000    0.0000 Cl  0  0  0  0  0  0  0  0  0  0  0  0
    0.0000    0.0000    0.0000 C   0  0  0  0  0  0  0  0  0  0  0  0
    0.0000    0.0000    0.0000 Cl  0  0  0  0  0  0  0  0  0  0  0  0
    0.0000    0.0000    0.0000 C   0  0  0  0  0  0  0  0  0  0  0  0
  1  2  1  0
  2  3  2  0
  3  4  1  0
  4  5  2  0
  5  6  1  0
  6  7  1  0
  7  8  1  0
  8  9  1  0
  9 10  1  0
 10 11  1  0
 11 12  2  0
 12 13  1  0
 13 14  2  0
  8 15  1  0
 15 16  2  0
 16 17  1  0
 17 18  2  0
 18 19  1  0
 18 20  1  0
 20 21  2  0
 21 22  1  0
  5 23  1  0
 23 24  1  0
 23 25  2  0
 25  2  1  0
 14 10  1  0
 21 15  1  0
M  END
>  <pIC50>  (297) 
4.9

>  <ChEMBL_ID>  (297) 
CHEMBL91

>  <document_journal>  (297) 
None

>  <bao_endpoint>  (297) 
BAO_0000190

>  <potential_duplicate>  (297) 
False

>  <uo_units>  (297) 
UO_0000065

>  <canonical_smiles>  (297) 
Clc1ccc(COC(Cn2ccnc2)c3ccc(Cl)cc3Cl)c(Cl)c1

>  <parent_molecule_chembl_id>  (297) 
CHEMBL91

>  <assay_type>  (297) 
B

>  <src_id>  (297) 
15

>  <ligand_efficiency>  (297) 
{u'le': u'0.27', u'bei': u'11.78', u'sei': u'18.13', u'lle': u'-0.75'}

>  <standard_flag>  (297) 
True

>  <molecule_chembl_id>  (297) 
CHEMBL91

>  <target_organism>  (297) 
Homo sapiens

>  <standard_units>  (297) 
nM

>  <record_id>  (297) 
1539950

>  <document_chembl_id>  (297) 
CHEMBL1909046

>  <bao_format>  (297) 
BAO_0000249

>  <data_validity_description>  (297) 
None

>  <activity_id>  (297) 
7754155

>  <standard_type>  (297) 
IC50

>  <target_chembl_id>  (297) 
CHEMBL217

>  <data_validity_comment>  (297) 
None

>  <published_value>  (297) 
12.504

>  <document_year>  (297) 
None

>  <target_pref_name>  (297) 
Dopamine D2 receptor

>  <assay_chembl_id>  (297) 
CHEMBL1909140

>  <standard_relation>  (297) 
=

>  <assay_description>  (297) 
DRUGMATRIX: Dopamine D2L radioligand binding (ligand: [3H] Spiperone)

>  <published_relation>  (297) 
=

>  <standard_value>  (297) 
12504

>  <qudt_units>  (297) 
http://www.openphacts.org/units/Nanomolar

>  <target_tax_id>  (297) 
9606

>  <bao_label>  (297) 
cell membrane format

>  <published_units>  (297) 
uM

>  <pchembl_value>  (297) 
4.9

>  <published_type>  (297) 
IC50

>  <activity_comment>  (297) 
None

$$$$

     RDKit          

 30 34  0  0  0  0  0  0  0  0999 V2000
    0.0000    0.0000    0.0000 C   0  0  0  0  0  0  0  0  0  0  0  0
    0.0000    0.0000    0.0000 N   0  0  0  0  0  0  0  0  0  0  0  0
    0.0000    0.0000    0.0000 C   0  0  0  0  0  0  0  0  0  0  0  0
    0.0000    0.0000    0.0000 C   0  0  0  0  0  0  0  0  0  0  0  0
    0.0000    0.0000    0.0000 C   0  0  0  0  0  0  0  0  0  0  0  0
    0.0000    0.0000    0.0000 N   0  0  0  0  0  0  0  0  0  0  0  0
    0.0000    0.0000    0.0000 C   0  0  0  0  0  0  0  0  0  0  0  0
    0.0000    0.0000    0.0000 O   0  0  0  0  0  0  0  0  0  0  0  0
    0.0000    0.0000    0.0000 O   0  0  0  0  0  0  0  0  0  0  0  0
    0.0000    0.0000    0.0000 C   0  0  0  0  0  0  0  0  0  0  0  0
    0.0000    0.0000    0.0000 C   0  0  0  0  0  0  0  0  0  0  0  0
    0.0000    0.0000    0.0000 C   0  0  0  0  0  0  0  0  0  0  0  0
    0.0000    0.0000    0.0000 C   0  0  0  0  0  0  0  0  0  0  0  0
    0.0000    0.0000    0.0000 C   0  0  0  0  0  0  0  0  0  0  0  0
    0.0000    0.0000    0.0000 C   0  0  0  0  0  0  0  0  0  0  0  0
    0.0000    0.0000    0.0000 C   0  0  0  0  0  0  0  0  0  0  0  0
    0.0000    0.0000    0.0000 C   0  0  0  0  0  0  0  0  0  0  0  0
    0.0000    0.0000    0.0000 C   0  0  0  0  0  0  0  0  0  0  0  0
    0.0000    0.0000    0.0000 C   0  0  0  0  0  0  0  0  0  0  0  0
    0.0000    0.0000    0.0000 C   0  0  0  0  0  0  0  0  0  0  0  0
    0.0000    0.0000    0.0000 C   0  0  0  0  0  0  0  0  0  0  0  0
    0.0000    0.0000    0.0000 C   0  0  0  0  0  0  0  0  0  0  0  0
    0.0000    0.0000    0.0000 N   0  0  0  0  0  0  0  0  0  0  0  0
    0.0000    0.0000    0.0000 C   0  0  0  0  0  0  0  0  0  0  0  0
    0.0000    0.0000    0.0000 C   0  0  0  0  0  0  0  0  0  0  0  0
    0.0000    0.0000    0.0000 C   0  0  0  0  0  0  0  0  0  0  0  0
    0.0000    0.0000    0.0000 C   0  0  0  0  0  0  0  0  0  0  0  0
    0.0000    0.0000    0.0000 C   0  0  0  0  0  0  0  0  0  0  0  0
    0.0000    0.0000    0.0000 C   0  0  0  0  0  0  0  0  0  0  0  0
    0.0000    0.0000    0.0000 C   0  0  0  0  0  0  0  0  0  0  0  0
  1  2  1  0
  2  3  1  0
  3  4  1  0
  4  5  1  0
  5  6  1  0
  6  7  1  0
  7  8  2  0
  7  9  1  0
  9 10  1  0
 10 11  1  0
 11 12  2  0
 12 13  1  0
 13 14  2  0
 14 15  1  0
 15 16  2  0
  4 17  1  0
 17 18  1  0
 18 19  1  0
 19 20  1  0
 20 21  1  0
 21 22  2  0
 22 23  1  0
 23 24  1  0
 23 25  1  0
 25 26  2  0
 26 27  1  0
 27 28  2  0
 28 29  1  0
 29 30  2  0
 19  2  1  0
 16 11  1  0
 29 18  1  0
 30 21  1  0
 30 25  1  0
M  END
>  <pIC50>  (298) 
7.2

>  <ChEMBL_ID>  (298) 
CHEMBL19215

>  <document_journal>  (298) 
None

>  <bao_endpoint>  (298) 
BAO_0000190

>  <potential_duplicate>  (298) 
False

>  <uo_units>  (298) 
UO_0000065

>  <canonical_smiles>  (298) 
CN1C[C@H](CNC(=O)OCc2ccccc2)C[C@H]3[C@H]1Cc4cn(C)c5cccc3c45

>  <parent_molecule_chembl_id>  (298) 
CHEMBL19215

>  <assay_type>  (298) 
B

>  <src_id>  (298) 
15

>  <ligand_efficiency>  (298) 
{u'le': u'0.33', u'bei': u'17.84', u'sei': u'15.49', u'lle': u'2.95'}

>  <standard_flag>  (298) 
True

>  <molecule_chembl_id>  (298) 
CHEMBL19215

>  <target_organism>  (298) 
Homo sapiens

>  <standard_units>  (298) 
nM

>  <record_id>  (298) 
1539926

>  <document_chembl_id>  (298) 
CHEMBL1909046

>  <bao_format>  (298) 
BAO_0000249

>  <data_validity_description>  (298) 
None

>  <activity_id>  (298) 
7755880

>  <standard_type>  (298) 
IC50

>  <target_chembl_id>  (298) 
CHEMBL217

>  <data_validity_comment>  (298) 
None

>  <published_value>  (298) 
0.063

>  <document_year>  (298) 
None

>  <target_pref_name>  (298) 
Dopamine D2 receptor

>  <assay_chembl_id>  (298) 
CHEMBL1909140

>  <standard_relation>  (298) 
=

>  <assay_description>  (298) 
DRUGMATRIX: Dopamine D2L radioligand binding (ligand: [3H] Spiperone)

>  <published_relation>  (298) 
=

>  <standard_value>  (298) 
63

>  <qudt_units>  (298) 
http://www.openphacts.org/units/Nanomolar

>  <target_tax_id>  (298) 
9606

>  <bao_label>  (298) 
cell membrane format

>  <published_units>  (298) 
uM

>  <pchembl_value>  (298) 
7.2

>  <published_type>  (298) 
IC50

>  <activity_comment>  (298) 
None

$$$$

     RDKit          

 37 37  0  0  0  0  0  0  0  0999 V2000
    0.0000    0.0000    0.0000 C   0  0  0  0  0  0  0  0  0  0  0  0
    0.0000    0.0000    0.0000 C   0  0  0  0  0  0  0  0  0  0  0  0
    0.0000    0.0000    0.0000 C   0  0  0  0  0  0  0  0  0  0  0  0
    0.0000    0.0000    0.0000 C   0  0  0  0  0  0  0  0  0  0  0  0
    0.0000    0.0000    0.0000 C   0  0  0  0  0  0  0  0  0  0  0  0
    0.0000    0.0000    0.0000 C   0  0  0  0  0  0  0  0  0  0  0  0
    0.0000    0.0000    0.0000 O   0  0  0  0  0  0  0  0  0  0  0  0
    0.0000    0.0000    0.0000 C   0  0  0  0  0  0  0  0  0  0  0  0
    0.0000    0.0000    0.0000 C   0  0  0  0  0  0  0  0  0  0  0  0
    0.0000    0.0000    0.0000 C   0  0  0  0  0  0  0  0  0  0  0  0
    0.0000    0.0000    0.0000 C   0  0  0  0  0  0  0  0  0  0  0  0
    0.0000    0.0000    0.0000 C   0  0  0  0  0  0  0  0  0  0  0  0
    0.0000    0.0000    0.0000 C   0  0  0  0  0  0  0  0  0  0  0  0
    0.0000    0.0000    0.0000 C   0  0  0  0  0  0  0  0  0  0  0  0
    0.0000    0.0000    0.0000 C   0  0  0  0  0  0  0  0  0  0  0  0
    0.0000    0.0000    0.0000 C   0  0  0  0  0  0  0  0  0  0  0  0
    0.0000    0.0000    0.0000 O   0  0  0  0  0  0  0  0  0  0  0  0
    0.0000    0.0000    0.0000 N   0  0  0  0  0  0  0  0  0  0  0  0
    0.0000    0.0000    0.0000 C   0  0  0  0  0  0  0  0  0  0  0  0
    0.0000    0.0000    0.0000 C   0  0  0  0  0  0  0  0  0  0  0  0
    0.0000    0.0000    0.0000 C   0  0  0  0  0  0  0  0  0  0  0  0
    0.0000    0.0000    0.0000 S   0  0  0  0  0  0  0  0  0  0  0  0
    0.0000    0.0000    0.0000 O   0  0  0  0  0  0  0  0  0  0  0  0
    0.0000    0.0000    0.0000 O   0  0  0  0  0  0  0  0  0  0  0  0
    0.0000    0.0000    0.0000 C   0  0  0  0  0  0  0  0  0  0  0  0
    0.0000    0.0000    0.0000 C   0  0  0  0  0  0  0  0  0  0  0  0
    0.0000    0.0000    0.0000 O   0  0  0  0  0  0  0  0  0  0  0  0
    0.0000    0.0000    0.0000 O   0  0  0  0  0  0  0  0  0  0  0  0
    0.0000    0.0000    0.0000 C   0  0  0  0  0  0  0  0  0  0  0  0
    0.0000    0.0000    0.0000 C   0  0  0  0  0  0  0  0  0  0  0  0
    0.0000    0.0000    0.0000 C   0  0  0  0  0  0  0  0  0  0  0  0
    0.0000    0.0000    0.0000 N   0  0  0  0  0  0  0  0  0  0  0  0
    0.0000    0.0000    0.0000 C   0  0  0  0  0  0  0  0  0  0  0  0
    0.0000    0.0000    0.0000 C   0  0  0  0  0  0  0  0  0  0  0  0
    0.0000    0.0000    0.0000 N   0  0  0  0  0  0  0  0  0  0  0  0
    0.0000    0.0000    0.0000 C   0  0  0  0  0  0  0  0  0  0  0  0
    0.0000    0.0000    0.0000 S   0  0  0  0  0  0  0  0  0  0  0  0
  1  2  1  0
  2  3  1  0
  3  4  1  0
  3  5  1  0
  5  6  1  0
  6  7  1  0
  7  8  1  0
  8  9  1  0
  9 10  1  0
 10 11  2  0
 11 12  1  0
 12 13  2  0
 13 14  1  0
 14 15  2  0
  8 16  1  0
 16 17  2  0
 16 18  1  0
 18 19  1  0
 19 20  1  0
 20 21  1  0
 21 22  1  0
 22 23  2  0
 22 24  2  0
 22 25  1  0
 19 26  1  0
 26 27  2  0
 26 28  1  0
 28 29  1  0
 29 30  1  0
 29 31  1  0
  5 32  1  0
 32 33  1  0
 33 34  1  0
 34 35  1  0
 34 36  1  0
 36 37  1  0
 15 10  1  0
M  END
>  <pIC50>  (299) 
6.8

>  <ChEMBL_ID>  (299) 
CHEMBL1221512

>  <document_journal>  (299) 
None

>  <bao_endpoint>  (299) 
BAO_0000190

>  <potential_duplicate>  (299) 
False

>  <uo_units>  (299) 
UO_0000065

>  <canonical_smiles>  (299) 
CC[C@H](C)[C@@H](CO[C@@H](Cc1ccccc1)C(=O)N[C@@H](CCS(=O)(=O)C)C(=O)OC(C)C)NC[C@@H](N)CS

>  <parent_molecule_chembl_id>  (299) 
CHEMBL1221512

>  <assay_type>  (299) 
B

>  <src_id>  (299) 
15

>  <ligand_efficiency>  (299) 
{u'le': u'0.25', u'bei': u'12.15', u'sei': u'3.7', u'lle': u'4.51'}

>  <standard_flag>  (299) 
True

>  <molecule_chembl_id>  (299) 
CHEMBL1221512

>  <target_organism>  (299) 
Homo sapiens

>  <standard_units>  (299) 
nM

>  <record_id>  (299) 
1539869

>  <document_chembl_id>  (299) 
CHEMBL1909046

>  <bao_format>  (299) 
BAO_0000249

>  <data_validity_description>  (299) 
None

>  <activity_id>  (299) 
7757028

>  <standard_type>  (299) 
IC50

>  <target_chembl_id>  (299) 
CHEMBL217

>  <data_validity_comment>  (299) 
None

>  <published_value>  (299) 
0.157

>  <document_year>  (299) 
None

>  <target_pref_name>  (299) 
Dopamine D2 receptor

>  <assay_chembl_id>  (299) 
CHEMBL1909140

>  <standard_relation>  (299) 
=

>  <assay_description>  (299) 
DRUGMATRIX: Dopamine D2L radioligand binding (ligand: [3H] Spiperone)

>  <published_relation>  (299) 
=

>  <standard_value>  (299) 
157

>  <qudt_units>  (299) 
http://www.openphacts.org/units/Nanomolar

>  <target_tax_id>  (299) 
9606

>  <bao_label>  (299) 
cell membrane format

>  <published_units>  (299) 
uM

>  <pchembl_value>  (299) 
6.8

>  <published_type>  (299) 
IC50

>  <activity_comment>  (299) 
None

$$$$

     RDKit          

 25 28  0  0  0  0  0  0  0  0999 V2000
    0.0000    0.0000    0.0000 C   0  0  0  0  0  0  0  0  0  0  0  0
    0.0000    0.0000    0.0000 C   0  0  0  0  0  0  0  0  0  0  0  0
    0.0000    0.0000    0.0000 N   0  0  0  0  0  0  0  0  0  0  0  0
    0.0000    0.0000    0.0000 C   0  0  0  0  0  0  0  0  0  0  0  0
    0.0000    0.0000    0.0000 C   0  0  0  0  0  0  0  0  0  0  0  0
    0.0000    0.0000    0.0000 C   0  0  0  0  0  0  0  0  0  0  0  0
    0.0000    0.0000    0.0000 O   0  0  0  0  0  0  0  0  0  0  0  0
    0.0000    0.0000    0.0000 N   0  0  0  0  0  0  0  0  0  0  0  0
    0.0000    0.0000    0.0000 C   0  0  0  0  0  0  0  0  0  0  0  0
    0.0000    0.0000    0.0000 C   0  0  0  0  0  0  0  0  0  0  0  0
    0.0000    0.0000    0.0000 N   0  0  0  0  0  0  0  0  0  0  0  0
    0.0000    0.0000    0.0000 C   0  0  0  0  0  0  0  0  0  0  0  0
    0.0000    0.0000    0.0000 C   0  0  0  0  0  0  0  0  0  0  0  0
    0.0000    0.0000    0.0000 C   0  0  0  0  0  0  0  0  0  0  0  0
    0.0000    0.0000    0.0000 C   0  0  0  0  0  0  0  0  0  0  0  0
    0.0000    0.0000    0.0000 C   0  0  0  0  0  0  0  0  0  0  0  0
    0.0000    0.0000    0.0000 N   0  0  0  0  0  0  0  0  0  0  0  0
    0.0000    0.0000    0.0000 C   0  0  0  0  0  0  0  0  0  0  0  0
    0.0000    0.0000    0.0000 C   0  0  0  0  0  0  0  0  0  0  0  0
    0.0000    0.0000    0.0000 C   0  0  0  0  0  0  0  0  0  0  0  0
    0.0000    0.0000    0.0000 C   0  0  0  0  0  0  0  0  0  0  0  0
    0.0000    0.0000    0.0000 C   0  0  0  0  0  0  0  0  0  0  0  0
    0.0000    0.0000    0.0000 C   0  0  0  0  0  0  0  0  0  0  0  0
    0.0000    0.0000    0.0000 C   0  0  0  0  0  0  0  0  0  0  0  0
    0.0000    0.0000    0.0000 C   0  0  0  0  0  0  0  0  0  0  0  0
  1  2  1  0
  2  3  1  0
  3  4  1  0
  4  5  1  0
  3  6  1  0
  6  7  2  0
  6  8  1  0
  8  9  1  0
  9 10  1  0
 10 11  1  0
 11 12  1  0
 11 13  1  0
 13 14  1  0
 14 15  1  0
 15 16  2  0
 16 17  1  0
 17 18  1  0
 18 19  2  0
 19 20  1  0
 20 21  2  0
 21 22  1  0
 22 23  1  0
 23 24  2  0
 22 25  2  0
 24  9  1  0
 23 13  1  0
 25 15  1  0
 25 18  1  0
M  END
>  <pIC50>  (300) 
8.54

>  <ChEMBL_ID>  (300) 
CHEMBL157138

>  <document_journal>  (300) 
None

>  <bao_endpoint>  (300) 
BAO_0000190

>  <potential_duplicate>  (300) 
False

>  <uo_units>  (300) 
UO_0000065

>  <canonical_smiles>  (300) 
CCN(CC)C(=O)N[C@@H]1CN(C)[C@@H]2Cc3c[nH]c4cccc(C2=C1)c34

>  <parent_molecule_chembl_id>  (300) 
CHEMBL157138

>  <assay_type>  (300) 
B

>  <src_id>  (300) 
15

>  <ligand_efficiency>  (300) 
{u'le': u'0.47', u'bei': u'25.24', u'sei': u'16.63', u'lle': u'5.94'}

>  <standard_flag>  (300) 
True

>  <molecule_chembl_id>  (300) 
CHEMBL157138

>  <target_organism>  (300) 
Homo sapiens

>  <standard_units>  (300) 
nM

>  <record_id>  (300) 
1539894

>  <document_chembl_id>  (300) 
CHEMBL1909046

>  <bao_format>  (300) 
BAO_0000249

>  <data_validity_description>  (300) 
None

>  <activity_id>  (300) 
7759662

>  <standard_type>  (300) 
IC50

>  <target_chembl_id>  (300) 
CHEMBL217

>  <data_validity_comment>  (300) 
None

>  <published_value>  (300) 
0.00286

>  <document_year>  (300) 
None

>  <target_pref_name>  (300) 
Dopamine D2 receptor

>  <assay_chembl_id>  (300) 
CHEMBL1909140

>  <standard_relation>  (300) 
=

>  <assay_description>  (300) 
DRUGMATRIX: Dopamine D2L radioligand binding (ligand: [3H] Spiperone)

>  <published_relation>  (300) 
=

>  <standard_value>  (300) 
2.86

>  <qudt_units>  (300) 
http://www.openphacts.org/units/Nanomolar

>  <target_tax_id>  (300) 
9606

>  <bao_label>  (300) 
cell membrane format

>  <published_units>  (300) 
uM

>  <pchembl_value>  (300) 
8.54

>  <published_type>  (300) 
IC50

>  <activity_comment>  (300) 
None

$$$$

     RDKit          

 64 70  0  0  0  0  0  0  0  0999 V2000
    0.0000    0.0000    0.0000 C   0  0  0  0  0  0  0  0  0  0  0  0
    0.0000    0.0000    0.0000 O   0  0  0  0  0  0  0  0  0  0  0  0
    0.0000    0.0000    0.0000 C   0  0  0  0  0  0  0  0  0  0  0  0
    0.0000    0.0000    0.0000 C   0  0  0  0  0  0  0  0  0  0  0  0
    0.0000    0.0000    0.0000 C   0  0  0  0  0  0  0  0  0  0  0  0
    0.0000    0.0000    0.0000 O   0  0  0  0  0  0  0  0  0  0  0  0
    0.0000    0.0000    0.0000 C   0  0  0  0  0  0  0  0  0  0  0  0
    0.0000    0.0000    0.0000 C   0  0  0  0  0  0  0  0  0  0  0  0
    0.0000    0.0000    0.0000 C   0  0  0  0  0  0  0  0  0  0  0  0
    0.0000    0.0000    0.0000 O   0  0  0  0  0  0  0  0  0  0  0  0
    0.0000    0.0000    0.0000 C   0  0  0  0  0  0  0  0  0  0  0  0
    0.0000    0.0000    0.0000 C   0  0  0  0  0  0  0  0  0  0  0  0
    0.0000    0.0000    0.0000 C   0  0  0  0  0  0  0  0  0  0  0  0
    0.0000    0.0000    0.0000 C   0  0  0  0  0  0  0  0  0  0  0  0
    0.0000    0.0000    0.0000 C   0  0  0  0  0  0  0  0  0  0  0  0
    0.0000    0.0000    0.0000 C   0  0  0  0  0  0  0  0  0  0  0  0
    0.0000    0.0000    0.0000 O   0  0  0  0  0  0  0  0  0  0  0  0
    0.0000    0.0000    0.0000 C   0  0  0  0  0  0  0  0  0  0  0  0
    0.0000    0.0000    0.0000 C   0  0  0  0  0  0  0  0  0  0  0  0
    0.0000    0.0000    0.0000 C   0  0  0  0  0  0  0  0  0  0  0  0
    0.0000    0.0000    0.0000 C   0  0  0  0  0  0  0  0  0  0  0  0
    0.0000    0.0000    0.0000 C   0  0  0  0  0  0  0  0  0  0  0  0
    0.0000    0.0000    0.0000 C   0  0  0  0  0  0  0  0  0  0  0  0
    0.0000    0.0000    0.0000 C   0  0  0  0  0  0  0  0  0  0  0  0
    0.0000    0.0000    0.0000 O   0  0  0  0  0  0  0  0  0  0  0  0
    0.0000    0.0000    0.0000 C   0  0  0  0  0  0  0  0  0  0  0  0
    0.0000    0.0000    0.0000 C   0  0  0  0  0  0  0  0  0  0  0  0
    0.0000    0.0000    0.0000 C   0  0  0  0  0  0  0  0  0  0  0  0
    0.0000    0.0000    0.0000 O   0  0  0  0  0  0  0  0  0  0  0  0
    0.0000    0.0000    0.0000 C   0  0  0  0  0  0  0  0  0  0  0  0
    0.0000    0.0000    0.0000 C   0  0  0  0  0  0  0  0  0  0  0  0
    0.0000    0.0000    0.0000 C   0  0  0  0  0  0  0  0  0  0  0  0
    0.0000    0.0000    0.0000 O   0  0  0  0  0  0  0  0  0  0  0  0
    0.0000    0.0000    0.0000 C   0  0  0  0  0  0  0  0  0  0  0  0
    0.0000    0.0000    0.0000 O   0  0  0  0  0  0  0  0  0  0  0  0
    0.0000    0.0000    0.0000 C   0  0  0  0  0  0  0  0  0  0  0  0
    0.0000    0.0000    0.0000 C   0  0  0  0  0  0  0  0  0  0  0  0
    0.0000    0.0000    0.0000 O   0  0  0  0  0  0  0  0  0  0  0  0
    0.0000    0.0000    0.0000 O   0  0  0  0  0  0  0  0  0  0  0  0
    0.0000    0.0000    0.0000 C   0  0  0  0  0  0  0  0  0  0  0  0
    0.0000    0.0000    0.0000 C   0  0  0  0  0  0  0  0  0  0  0  0
    0.0000    0.0000    0.0000 C   0  0  0  0  0  0  0  0  0  0  0  0
    0.0000    0.0000    0.0000 O   0  0  0  0  0  0  0  0  0  0  0  0
    0.0000    0.0000    0.0000 C   0  0  0  0  0  0  0  0  0  0  0  0
    0.0000    0.0000    0.0000 C   0  0  0  0  0  0  0  0  0  0  0  0
    0.0000    0.0000    0.0000 O   0  0  0  0  0  0  0  0  0  0  0  0
    0.0000    0.0000    0.0000 C   0  0  0  0  0  0  0  0  0  0  0  0
    0.0000    0.0000    0.0000 O   0  0  0  0  0  0  0  0  0  0  0  0
    0.0000    0.0000    0.0000 C   0  0  0  0  0  0  0  0  0  0  0  0
    0.0000    0.0000    0.0000 O   0  0  0  0  0  0  0  0  0  0  0  0
    0.0000    0.0000    0.0000 C   0  0  0  0  0  0  0  0  0  0  0  0
    0.0000    0.0000    0.0000 C   0  0  0  0  0  0  0  0  0  0  0  0
    0.0000    0.0000    0.0000 O   0  0  0  0  0  0  0  0  0  0  0  0
    0.0000    0.0000    0.0000 C   0  0  0  0  0  0  0  0  0  0  0  0
    0.0000    0.0000    0.0000 C   0  0  0  0  0  0  0  0  0  0  0  0
    0.0000    0.0000    0.0000 C   0  0  0  0  0  0  0  0  0  0  0  0
    0.0000    0.0000    0.0000 C   0  0  0  0  0  0  0  0  0  0  0  0
    0.0000    0.0000    0.0000 C   0  0  0  0  0  0  0  0  0  0  0  0
    0.0000    0.0000    0.0000 O   0  0  0  0  0  0  0  0  0  0  0  0
    0.0000    0.0000    0.0000 C   0  0  0  0  0  0  0  0  0  0  0  0
    0.0000    0.0000    0.0000 C   0  0  0  0  0  0  0  0  0  0  0  0
    0.0000    0.0000    0.0000 C   0  0  0  0  0  0  0  0  0  0  0  0
    0.0000    0.0000    0.0000 O   0  0  0  0  0  0  0  0  0  0  0  0
    0.0000    0.0000    0.0000 C   0  0  0  0  0  0  0  0  0  0  0  0
  1  2  1  0
  2  3  1  0
  3  4  1  0
  4  5  1  0
  5  6  1  0
  6  7  1  0
  7  8  1  0
  8  9  1  0
  9 10  1  0
 10 11  1  0
 11 12  1  0
 12 13  1  0
 12 14  1  0
 14 15  1  0
 15 16  1  0
 16 17  1  0
 16 18  1  0
 18 19  1  0
 18 20  1  0
 20 21  1  0
 21 22  1  0
 22 23  1  0
 23 24  1  0
 24 25  1  0
 24 26  1  0
 26 27  1  0
 26 28  1  0
 28 29  1  0
 28 30  1  0
 30 31  1  0
 30 32  1  0
 32 33  1  0
 33 34  1  0
 34 35  1  0
 34 36  1  0
 36 37  1  0
 37 38  2  0
 37 39  1  0
 34 40  1  0
 40 41  1  0
 40 42  1  0
 42 43  1  0
 43 44  1  0
 42 45  1  0
 45 46  1  0
 46 47  1  0
 22 48  1  0
  9 49  1  0
 49 50  1  0
 50 51  1  0
 51 52  1  0
 51 53  1  0
 51 54  1  0
 54 55  1  0
 54 56  1  0
 56 57  1  0
 57 58  1  0
  5 59  1  0
 59 60  1  0
 60 61  1  0
 60 62  1  0
 62 63  1  0
 63 64  1  0
 62  3  1  0
 11  7  1  0
 17 12  1  0
 48 18  1  0
 29 22  1  0
 45 32  1  0
 57 49  1  0
M  END
>  <pIC50>  (301) 
6.15

>  <ChEMBL_ID>  (301) 
CHEMBL1909065

>  <document_journal>  (301) 
None

>  <bao_endpoint>  (301) 
BAO_0000190

>  <potential_duplicate>  (301) 
False

>  <uo_units>  (301) 
UO_0000065

>  <canonical_smiles>  (301) 
CO[C@H]1C[C@@H](O[C@H]2C[C@@H](O[C@H]2[C@]3(C)CC[C@@H](O3)[C@]4(C)CC[C@]5(C[C@H](O)[C@@H](C)[C@H](O5)[C@@H](C)[C@@H]6O[C@](O)(CC(=O)O)[C@@H](C)[C@H](OC)[C@H]6OC)O4)[C@H]7O[C@](C)(O)[C@H](C)C[C@@H]7C)O[C@@H](C)[C@@H]1OC

>  <parent_molecule_chembl_id>  (301) 
CHEMBL1909065

>  <assay_type>  (301) 
B

>  <src_id>  (301) 
15

>  <ligand_efficiency>  (301) 
{u'le': u'0.13', u'bei': u'6.71', u'sei': u'2.95', u'lle': u'3.98'}

>  <standard_flag>  (301) 
True

>  <molecule_chembl_id>  (301) 
CHEMBL1909065

>  <target_organism>  (301) 
Homo sapiens

>  <standard_units>  (301) 
nM

>  <record_id>  (301) 
1539904

>  <document_chembl_id>  (301) 
CHEMBL1909046

>  <bao_format>  (301) 
BAO_0000249

>  <data_validity_description>  (301) 
None

>  <activity_id>  (301) 
7766141

>  <standard_type>  (301) 
IC50

>  <target_chembl_id>  (301) 
CHEMBL217

>  <data_validity_comment>  (301) 
None

>  <published_value>  (301) 
0.702

>  <document_year>  (301) 
None

>  <target_pref_name>  (301) 
Dopamine D2 receptor

>  <assay_chembl_id>  (301) 
CHEMBL1909140

>  <standard_relation>  (301) 
=

>  <assay_description>  (301) 
DRUGMATRIX: Dopamine D2L radioligand binding (ligand: [3H] Spiperone)

>  <published_relation>  (301) 
=

>  <standard_value>  (301) 
702

>  <qudt_units>  (301) 
http://www.openphacts.org/units/Nanomolar

>  <target_tax_id>  (301) 
9606

>  <bao_label>  (301) 
cell membrane format

>  <published_units>  (301) 
uM

>  <pchembl_value>  (301) 
6.15

>  <published_type>  (301) 
IC50

>  <activity_comment>  (301) 
None

$$$$

     RDKit          

 25 28  0  0  0  0  0  0  0  0999 V2000
    0.0000    0.0000    0.0000 C   0  0  0  0  0  0  0  0  0  0  0  0
    0.0000    0.0000    0.0000 C   0  0  0  0  0  0  0  0  0  0  0  0
    0.0000    0.0000    0.0000 C   0  0  0  0  0  0  0  0  0  0  0  0
    0.0000    0.0000    0.0000 C   0  0  0  0  0  0  0  0  0  0  0  0
    0.0000    0.0000    0.0000 O   0  0  0  0  0  0  0  0  0  0  0  0
    0.0000    0.0000    0.0000 N   0  0  0  0  0  0  0  0  0  0  0  0
    0.0000    0.0000    0.0000 C   0  0  0  0  0  0  0  0  0  0  0  0
    0.0000    0.0000    0.0000 O   0  0  0  0  0  0  0  0  0  0  0  0
    0.0000    0.0000    0.0000 C   0  0  0  0  0  0  0  0  0  0  0  0
    0.0000    0.0000    0.0000 C   0  0  0  0  0  0  0  0  0  0  0  0
    0.0000    0.0000    0.0000 N   0  0  0  0  0  0  0  0  0  0  0  0
    0.0000    0.0000    0.0000 C   0  0  0  0  0  0  0  0  0  0  0  0
    0.0000    0.0000    0.0000 C   0  0  0  0  0  0  0  0  0  0  0  0
    0.0000    0.0000    0.0000 C   0  0  0  0  0  0  0  0  0  0  0  0
    0.0000    0.0000    0.0000 C   0  0  0  0  0  0  0  0  0  0  0  0
    0.0000    0.0000    0.0000 C   0  0  0  0  0  0  0  0  0  0  0  0
    0.0000    0.0000    0.0000 N   0  0  0  0  0  0  0  0  0  0  0  0
    0.0000    0.0000    0.0000 C   0  0  0  0  0  0  0  0  0  0  0  0
    0.0000    0.0000    0.0000 C   0  0  0  0  0  0  0  0  0  0  0  0
    0.0000    0.0000    0.0000 C   0  0  0  0  0  0  0  0  0  0  0  0
    0.0000    0.0000    0.0000 C   0  0  0  0  0  0  0  0  0  0  0  0
    0.0000    0.0000    0.0000 C   0  0  0  0  0  0  0  0  0  0  0  0
    0.0000    0.0000    0.0000 C   0  0  0  0  0  0  0  0  0  0  0  0
    0.0000    0.0000    0.0000 C   0  0  0  0  0  0  0  0  0  0  0  0
    0.0000    0.0000    0.0000 C   0  0  0  0  0  0  0  0  0  0  0  0
  1  2  1  0
  2  3  1  0
  3  4  1  0
  4  5  1  0
  3  6  1  0
  6  7  1  0
  7  8  2  0
  7  9  1  0
  9 10  1  0
 10 11  1  0
 11 12  1  0
 11 13  1  0
 13 14  1  0
 14 15  1  0
 15 16  2  0
 16 17  1  0
 17 18  1  0
 18 19  2  0
 19 20  1  0
 20 21  2  0
 21 22  1  0
 22 23  1  0
 23 24  2  0
 22 25  2  0
 24  9  1  0
 23 13  1  0
 25 15  1  0
 25 18  1  0
M  END
>  <pIC50>  (302) 
6.08

>  <ChEMBL_ID>  (302) 
CHEMBL1201356

>  <document_journal>  (302) 
None

>  <bao_endpoint>  (302) 
BAO_0000190

>  <potential_duplicate>  (302) 
False

>  <uo_units>  (302) 
UO_0000065

>  <canonical_smiles>  (302) 
CC[C@@H](CO)NC(=O)[C@H]1CN(C)[C@@H]2Cc3c[nH]c4cccc(C2=C1)c34

>  <parent_molecule_chembl_id>  (302) 
CHEMBL1201356

>  <assay_type>  (302) 
B

>  <src_id>  (302) 
15

>  <ligand_efficiency>  (302) 
{u'le': u'0.33', u'bei': u'17.92', u'sei': u'8.9', u'lle': u'4.02'}

>  <standard_flag>  (302) 
True

>  <molecule_chembl_id>  (302) 
CHEMBL1201356

>  <target_organism>  (302) 
Homo sapiens

>  <standard_units>  (302) 
nM

>  <record_id>  (302) 
1539937

>  <document_chembl_id>  (302) 
CHEMBL1909046

>  <bao_format>  (302) 
BAO_0000249

>  <data_validity_description>  (302) 
None

>  <activity_id>  (302) 
7768846

>  <standard_type>  (302) 
IC50

>  <target_chembl_id>  (302) 
CHEMBL217

>  <data_validity_comment>  (302) 
None

>  <published_value>  (302) 
0.829

>  <document_year>  (302) 
None

>  <target_pref_name>  (302) 
Dopamine D2 receptor

>  <assay_chembl_id>  (302) 
CHEMBL1909140

>  <standard_relation>  (302) 
=

>  <assay_description>  (302) 
DRUGMATRIX: Dopamine D2L radioligand binding (ligand: [3H] Spiperone)

>  <published_relation>  (302) 
=

>  <standard_value>  (302) 
829

>  <qudt_units>  (302) 
http://www.openphacts.org/units/Nanomolar

>  <target_tax_id>  (302) 
9606

>  <bao_label>  (302) 
cell membrane format

>  <published_units>  (302) 
uM

>  <pchembl_value>  (302) 
6.08

>  <published_type>  (302) 
IC50

>  <activity_comment>  (302) 
None

$$$$

     RDKit          

 23 24  0  0  0  0  0  0  0  0999 V2000
    0.0000    0.0000    0.0000 C   0  0  0  0  0  0  0  0  0  0  0  0
    0.0000    0.0000    0.0000 C   0  0  0  0  0  0  0  0  0  0  0  0
    0.0000    0.0000    0.0000 N   0  0  0  0  0  0  0  0  0  0  0  0
    0.0000    0.0000    0.0000 C   0  0  0  0  0  0  0  0  0  0  0  0
    0.0000    0.0000    0.0000 C   0  0  0  0  0  0  0  0  0  0  0  0
    0.0000    0.0000    0.0000 C   0  0  0  0  0  0  0  0  0  0  0  0
    0.0000    0.0000    0.0000 C   0  0  0  0  0  0  0  0  0  0  0  0
    0.0000    0.0000    0.0000 C   0  0  0  0  0  0  0  0  0  0  0  0
    0.0000    0.0000    0.0000 N   0  0  0  0  0  0  0  0  0  0  0  0
    0.0000    0.0000    0.0000 C   0  0  0  0  0  0  0  0  0  0  0  0
    0.0000    0.0000    0.0000 O   0  0  0  0  0  0  0  0  0  0  0  0
    0.0000    0.0000    0.0000 C   0  0  0  0  0  0  0  0  0  0  0  0
    0.0000    0.0000    0.0000 C   0  0  0  0  0  0  0  0  0  0  0  0
    0.0000    0.0000    0.0000 C   0  0  0  0  0  0  0  0  0  0  0  0
    0.0000    0.0000    0.0000 C   0  0  0  0  0  0  0  0  0  0  0  0
    0.0000    0.0000    0.0000 C   0  0  0  0  0  0  0  0  0  0  0  0
    0.0000    0.0000    0.0000 C   0  0  0  0  0  0  0  0  0  0  0  0
    0.0000    0.0000    0.0000 O   0  0  0  0  0  0  0  0  0  0  0  0
    0.0000    0.0000    0.0000 C   0  0  0  0  0  0  0  0  0  0  0  0
    0.0000    0.0000    0.0000 S   0  0  0  0  0  0  0  0  0  0  0  0
    0.0000    0.0000    0.0000 O   0  0  0  0  0  0  0  0  0  0  0  0
    0.0000    0.0000    0.0000 O   0  0  0  0  0  0  0  0  0  0  0  0
    0.0000    0.0000    0.0000 N   0  0  0  0  0  0  0  0  0  0  0  0
  1  2  1  0
  2  3  1  0
  3  4  1  0
  4  5  1  0
  5  6  1  0
  6  7  1  0
  7  8  1  0
  8  9  1  0
  9 10  1  0
 10 11  2  0
 10 12  1  0
 12 13  2  0
 13 14  1  0
 14 15  2  0
 15 16  1  0
 16 17  2  0
 17 18  1  0
 18 19  1  0
 14 20  1  0
 20 21  2  0
 20 22  2  0
 20 23  1  0
  7  3  1  0
 17 12  1  0
M  END
>  <pIC50>  (303) 
6.89

>  <ChEMBL_ID>  (303) 
CHEMBL267044

>  <document_journal>  (303) 
None

>  <bao_endpoint>  (303) 
BAO_0000190

>  <potential_duplicate>  (303) 
False

>  <uo_units>  (303) 
UO_0000065

>  <canonical_smiles>  (303) 
CCN1CCC[C@H]1CNC(=O)c2cc(ccc2OC)S(=O)(=O)N

>  <parent_molecule_chembl_id>  (303) 
CHEMBL267044

>  <assay_type>  (303) 
B

>  <src_id>  (303) 
15

>  <ligand_efficiency>  (303) 
{u'le': u'0.41', u'bei': u'20.19', u'sei': u'6.26', u'lle': u'6.19'}

>  <standard_flag>  (303) 
True

>  <molecule_chembl_id>  (303) 
CHEMBL267044

>  <target_organism>  (303) 
Homo sapiens

>  <standard_units>  (303) 
nM

>  <record_id>  (303) 
1539889

>  <document_chembl_id>  (303) 
CHEMBL1909046

>  <bao_format>  (303) 
BAO_0000249

>  <data_validity_description>  (303) 
None

>  <activity_id>  (303) 
7772368

>  <standard_type>  (303) 
IC50

>  <target_chembl_id>  (303) 
CHEMBL217

>  <data_validity_comment>  (303) 
None

>  <published_value>  (303) 
0.128

>  <document_year>  (303) 
None

>  <target_pref_name>  (303) 
Dopamine D2 receptor

>  <assay_chembl_id>  (303) 
CHEMBL1909140

>  <standard_relation>  (303) 
=

>  <assay_description>  (303) 
DRUGMATRIX: Dopamine D2L radioligand binding (ligand: [3H] Spiperone)

>  <published_relation>  (303) 
=

>  <standard_value>  (303) 
128

>  <qudt_units>  (303) 
http://www.openphacts.org/units/Nanomolar

>  <target_tax_id>  (303) 
9606

>  <bao_label>  (303) 
cell membrane format

>  <published_units>  (303) 
uM

>  <pchembl_value>  (303) 
6.89

>  <published_type>  (303) 
IC50

>  <activity_comment>  (303) 
None

$$$$

     RDKit          

 38 43  0  0  0  0  0  0  0  0999 V2000
    0.0000    0.0000    0.0000 C   0  0  0  0  0  0  0  0  0  0  0  0
    0.0000    0.0000    0.0000 C   0  0  0  0  0  0  0  0  0  0  0  0
    0.0000    0.0000    0.0000 C   0  0  0  0  0  0  0  0  0  0  0  0
    0.0000    0.0000    0.0000 C   0  0  0  0  0  0  0  0  0  0  0  0
    0.0000    0.0000    0.0000 C   0  0  0  0  0  0  0  0  0  0  0  0
    0.0000    0.0000    0.0000 O   0  0  0  0  0  0  0  0  0  0  0  0
    0.0000    0.0000    0.0000 C   0  0  0  0  0  0  0  0  0  0  0  0
    0.0000    0.0000    0.0000 C   0  0  0  0  0  0  0  0  0  0  0  0
    0.0000    0.0000    0.0000 C   0  0  0  0  0  0  0  0  0  0  0  0
    0.0000    0.0000    0.0000 N   0  0  0  0  0  0  0  0  0  0  0  0
    0.0000    0.0000    0.0000 C   0  0  0  0  0  0  0  0  0  0  0  0
    0.0000    0.0000    0.0000 C   0  0  0  0  0  0  0  0  0  0  0  0
    0.0000    0.0000    0.0000 N   0  0  0  0  0  0  0  0  0  0  0  0
    0.0000    0.0000    0.0000 C   0  0  0  0  0  0  0  0  0  0  0  0
    0.0000    0.0000    0.0000 C   0  0  0  0  0  0  0  0  0  0  0  0
    0.0000    0.0000    0.0000 C   0  0  0  0  0  0  0  0  0  0  0  0
    0.0000    0.0000    0.0000 C   0  0  0  0  0  0  0  0  0  0  0  0
    0.0000    0.0000    0.0000 C   0  0  0  0  0  0  0  0  0  0  0  0
    0.0000    0.0000    0.0000 N   0  0  0  0  0  0  0  0  0  0  0  0
    0.0000    0.0000    0.0000 C   0  0  0  0  0  0  0  0  0  0  0  0
    0.0000    0.0000    0.0000 N   0  0  0  0  0  0  0  0  0  0  0  0
    0.0000    0.0000    0.0000 N   0  0  0  0  0  0  0  0  0  0  0  0
    0.0000    0.0000    0.0000 C   0  0  0  0  0  0  0  0  0  0  0  0
    0.0000    0.0000    0.0000 C   0  0  0  0  0  0  0  0  0  0  0  0
    0.0000    0.0000    0.0000 C   0  0  0  0  0  0  0  0  0  0  0  0
    0.0000    0.0000    0.0000 C   0  0  0  0  0  0  0  0  0  0  0  0
    0.0000    0.0000    0.0000 N   0  0  0  0  0  0  0  0  0  0  0  0
    0.0000    0.0000    0.0000 C   0  0  0  0  0  0  0  0  0  0  0  0
    0.0000    0.0000    0.0000 C   0  0  0  0  0  0  0  0  0  0  0  0
    0.0000    0.0000    0.0000 C   0  0  0  0  0  0  0  0  0  0  0  0
    0.0000    0.0000    0.0000 C   0  0  0  0  0  0  0  0  0  0  0  0
    0.0000    0.0000    0.0000 C   0  0  0  0  0  0  0  0  0  0  0  0
    0.0000    0.0000    0.0000 C   0  0  0  0  0  0  0  0  0  0  0  0
    0.0000    0.0000    0.0000 C   0  0  0  0  0  0  0  0  0  0  0  0
    0.0000    0.0000    0.0000 C   0  0  0  0  0  0  0  0  0  0  0  0
    0.0000    0.0000    0.0000 C   0  0  0  0  0  0  0  0  0  0  0  0
    0.0000    0.0000    0.0000 C   0  0  0  0  0  0  0  0  0  0  0  0
    0.0000    0.0000    0.0000 O   0  0  0  0  0  0  0  0  0  0  0  0
  1  2  1  0
  2  3  2  0
  3  4  1  0
  3  5  1  0
  5  6  1  0
  6  7  1  0
  7  8  1  0
  7  9  1  0
  9 10  1  0
 10 11  1  0
 11 12  1  0
 12 13  1  0
 13 14  1  0
 14 15  1  0
 13 16  1  0
 16 17  2  0
 17 18  1  0
 18 19  2  0
 19 20  1  0
 20 21  2  0
 20 22  1  0
 22 23  1  0
 23 24  1  0
 24 25  1  0
 25 26  1  0
 18 27  1  0
 27 28  1  0
 28 29  1  0
 29 30  1  0
 30 31  1  0
  7 32  1  0
 32 33  1  0
 33 34  1  0
 34 35  1  0
 35 36  1  0
 35 37  2  0
 37 38  1  0
 37  2  1  0
 34  5  2  0
 15 10  1  0
 21 16  1  0
 26 22  1  0
 31 27  1  0
M  END
>  <pIC50>  (304) 
4.78

>  <ChEMBL_ID>  (304) 
CHEMBL141343

>  <document_journal>  (304) 
None

>  <bao_endpoint>  (304) 
BAO_0000190

>  <potential_duplicate>  (304) 
False

>  <uo_units>  (304) 
UO_0000065

>  <canonical_smiles>  (304) 
Cc1c(C)c2OC(C)(CN3CCN(CC3)c4cc(nc(n4)N5CCCC5)N6CCCC6)CCc2c(C)c1O

>  <parent_molecule_chembl_id>  (304) 
CHEMBL141343

>  <assay_type>  (304) 
B

>  <src_id>  (304) 
15

>  <ligand_efficiency>  (304) 
{u'le': u'0.17', u'bei': u'9.17', u'sei': u'7', u'lle': u'-1.85'}

>  <standard_flag>  (304) 
True

>  <molecule_chembl_id>  (304) 
CHEMBL141343

>  <target_organism>  (304) 
Homo sapiens

>  <standard_units>  (304) 
nM

>  <record_id>  (304) 
1540259

>  <document_chembl_id>  (304) 
CHEMBL1909046

>  <bao_format>  (304) 
BAO_0000249

>  <data_validity_description>  (304) 
None

>  <activity_id>  (304) 
7788040

>  <standard_type>  (304) 
IC50

>  <target_chembl_id>  (304) 
CHEMBL217

>  <data_validity_comment>  (304) 
None

>  <published_value>  (304) 
16.76

>  <document_year>  (304) 
None

>  <target_pref_name>  (304) 
Dopamine D2 receptor

>  <assay_chembl_id>  (304) 
CHEMBL1909140

>  <standard_relation>  (304) 
=

>  <assay_description>  (304) 
DRUGMATRIX: Dopamine D2L radioligand binding (ligand: [3H] Spiperone)

>  <published_relation>  (304) 
=

>  <standard_value>  (304) 
16760

>  <qudt_units>  (304) 
http://www.openphacts.org/units/Nanomolar

>  <target_tax_id>  (304) 
9606

>  <bao_label>  (304) 
cell membrane format

>  <published_units>  (304) 
uM

>  <pchembl_value>  (304) 
4.78

>  <published_type>  (304) 
IC50

>  <activity_comment>  (304) 
None

$$$$

     RDKit          

 26 30  0  0  0  0  0  0  0  0999 V2000
    0.0000    0.0000    0.0000 C   0  0  0  0  0  0  0  0  0  0  0  0
    0.0000    0.0000    0.0000 O   0  0  0  0  0  0  0  0  0  0  0  0
    0.0000    0.0000    0.0000 C   0  0  0  0  0  0  0  0  0  0  0  0
    0.0000    0.0000    0.0000 O   0  0  0  0  0  0  0  0  0  0  0  0
    0.0000    0.0000    0.0000 C   0  0  0  0  0  0  0  0  0  0  0  0
    0.0000    0.0000    0.0000 C   0  0  0  0  0  0  0  0  0  0  0  0
    0.0000    0.0000    0.0000 O   0  0  0  0  0  0  0  0  0  0  0  0
    0.0000    0.0000    0.0000 C   0  0  0  0  0  0  0  0  0  0  0  0
    0.0000    0.0000    0.0000 C   0  0  0  0  0  0  0  0  0  0  0  0
    0.0000    0.0000    0.0000 C   0  0  0  0  0  0  0  0  0  0  0  0
    0.0000    0.0000    0.0000 C   0  0  0  0  0  0  0  0  0  0  0  0
    0.0000    0.0000    0.0000 N   0  0  0  0  0  0  0  0  0  0  0  0
    0.0000    0.0000    0.0000 C   0  0  0  0  0  0  0  0  0  0  0  0
    0.0000    0.0000    0.0000 C   0  0  0  0  0  0  0  0  0  0  0  0
    0.0000    0.0000    0.0000 C   0  0  0  0  0  0  0  0  0  0  0  0
    0.0000    0.0000    0.0000 C   0  0  0  0  0  0  0  0  0  0  0  0
    0.0000    0.0000    0.0000 N   0  0  0  0  0  0  0  0  0  0  0  0
    0.0000    0.0000    0.0000 C   0  0  0  0  0  0  0  0  0  0  0  0
    0.0000    0.0000    0.0000 C   0  0  0  0  0  0  0  0  0  0  0  0
    0.0000    0.0000    0.0000 C   0  0  0  0  0  0  0  0  0  0  0  0
    0.0000    0.0000    0.0000 C   0  0  0  0  0  0  0  0  0  0  0  0
    0.0000    0.0000    0.0000 C   0  0  0  0  0  0  0  0  0  0  0  0
    0.0000    0.0000    0.0000 C   0  0  0  0  0  0  0  0  0  0  0  0
    0.0000    0.0000    0.0000 C   0  0  0  0  0  0  0  0  0  0  0  0
    0.0000    0.0000    0.0000 C   0  0  0  0  0  0  0  0  0  0  0  0
    0.0000    0.0000    0.0000 C   0  0  0  0  0  0  0  0  0  0  0  0
  1  2  1  0
  2  3  1  0
  3  4  2  0
  3  5  1  0
  5  6  1  0
  6  7  1  0
  6  8  1  0
  8  9  1  0
  9 10  1  0
 10 11  1  0
 11 12  1  0
 12 13  1  0
 13 14  1  0
 14 15  1  0
 15 16  2  0
 16 17  1  0
 17 18  1  0
 18 19  2  0
 19 20  1  0
 20 21  2  0
 21 22  1  0
 22 23  2  0
 16 24  1  0
 24 25  1  0
 25 26  1  0
 26  5  1  0
 26 10  1  0
 24 12  1  0
 23 15  1  0
 23 18  1  0
M  END
>  <pIC50>  (305) 
5.69

>  <ChEMBL_ID>  (305) 
CHEMBL15245

>  <document_journal>  (305) 
None

>  <bao_endpoint>  (305) 
BAO_0000190

>  <potential_duplicate>  (305) 
False

>  <uo_units>  (305) 
UO_0000065

>  <canonical_smiles>  (305) 
COC(=O)[C@H]1[C@@H](O)CC[C@H]2CN3CCc4c([nH]c5ccccc45)[C@@H]3C[C@H]12

>  <parent_molecule_chembl_id>  (305) 
CHEMBL15245

>  <assay_type>  (305) 
B

>  <src_id>  (305) 
15

>  <ligand_efficiency>  (305) 
{u'le': u'0.3', u'bei': u'16.04', u'sei': u'8.67', u'lle': u'2.87'}

>  <standard_flag>  (305) 
True

>  <molecule_chembl_id>  (305) 
CHEMBL15245

>  <target_organism>  (305) 
Homo sapiens

>  <standard_units>  (305) 
nM

>  <record_id>  (305) 
1540278

>  <document_chembl_id>  (305) 
CHEMBL1909046

>  <bao_format>  (305) 
BAO_0000249

>  <data_validity_description>  (305) 
None

>  <activity_id>  (305) 
7793064

>  <standard_type>  (305) 
IC50

>  <target_chembl_id>  (305) 
CHEMBL217

>  <data_validity_comment>  (305) 
None

>  <published_value>  (305) 
2.06

>  <document_year>  (305) 
None

>  <target_pref_name>  (305) 
Dopamine D2 receptor

>  <assay_chembl_id>  (305) 
CHEMBL1909140

>  <standard_relation>  (305) 
=

>  <assay_description>  (305) 
DRUGMATRIX: Dopamine D2L radioligand binding (ligand: [3H] Spiperone)

>  <published_relation>  (305) 
=

>  <standard_value>  (305) 
2060

>  <qudt_units>  (305) 
http://www.openphacts.org/units/Nanomolar

>  <target_tax_id>  (305) 
9606

>  <bao_label>  (305) 
cell membrane format

>  <published_units>  (305) 
uM

>  <pchembl_value>  (305) 
5.69

>  <published_type>  (305) 
IC50

>  <activity_comment>  (305) 
None

$$$$

     RDKit          

 25 28  0  0  0  0  0  0  0  0999 V2000
    0.0000    0.0000    0.0000 C   0  0  0  0  0  0  0  0  0  0  0  0
    0.0000    0.0000    0.0000 S   0  0  0  0  0  0  0  0  0  0  0  0
    0.0000    0.0000    0.0000 C   0  0  0  0  0  0  0  0  0  0  0  0
    0.0000    0.0000    0.0000 C   0  0  0  0  0  0  0  0  0  0  0  0
    0.0000    0.0000    0.0000 C   0  0  0  0  0  0  0  0  0  0  0  0
    0.0000    0.0000    0.0000 C   0  0  0  0  0  0  0  0  0  0  0  0
    0.0000    0.0000    0.0000 S   0  0  0  0  0  0  0  0  0  0  0  0
    0.0000    0.0000    0.0000 C   0  0  0  0  0  0  0  0  0  0  0  0
    0.0000    0.0000    0.0000 C   0  0  0  0  0  0  0  0  0  0  0  0
    0.0000    0.0000    0.0000 C   0  0  0  0  0  0  0  0  0  0  0  0
    0.0000    0.0000    0.0000 C   0  0  0  0  0  0  0  0  0  0  0  0
    0.0000    0.0000    0.0000 C   0  0  0  0  0  0  0  0  0  0  0  0
    0.0000    0.0000    0.0000 C   0  0  0  0  0  0  0  0  0  0  0  0
    0.0000    0.0000    0.0000 N   0  0  0  0  0  0  0  0  0  0  0  0
    0.0000    0.0000    0.0000 C   0  0  0  0  0  0  0  0  0  0  0  0
    0.0000    0.0000    0.0000 C   0  0  0  0  0  0  0  0  0  0  0  0
    0.0000    0.0000    0.0000 C   0  0  0  0  0  0  0  0  0  0  0  0
    0.0000    0.0000    0.0000 C   0  0  0  0  0  0  0  0  0  0  0  0
    0.0000    0.0000    0.0000 C   0  0  0  0  0  0  0  0  0  0  0  0
    0.0000    0.0000    0.0000 C   0  0  0  0  0  0  0  0  0  0  0  0
    0.0000    0.0000    0.0000 C   0  0  0  0  0  0  0  0  0  0  0  0
    0.0000    0.0000    0.0000 N   0  0  0  0  0  0  0  0  0  0  0  0
    0.0000    0.0000    0.0000 C   0  0  0  0  0  0  0  0  0  0  0  0
    0.0000    0.0000    0.0000 C   0  0  0  0  0  0  0  0  0  0  0  0
    0.0000    0.0000    0.0000 C   0  0  0  0  0  0  0  0  0  0  0  0
  1  2  1  0
  2  3  1  0
  3  4  2  0
  4  5  1  0
  5  6  2  0
  6  7  1  0
  7  8  1  0
  8  9  2  0
  9 10  1  0
 10 11  2  0
 11 12  1  0
 12 13  2  0
 13 14  1  0
 14 15  1  0
 15 16  1  0
 16 17  1  0
 17 18  1  0
 18 19  1  0
 19 20  1  0
 20 21  1  0
 21 22  1  0
 22 23  1  0
 14 24  1  0
 24 25  2  0
 25  3  1  0
 24  6  1  0
 13  8  1  0
 22 17  1  0
M  END
>  <pIC50>  (306) 
7.46

>  <ChEMBL_ID>  (306) 
CHEMBL479

>  <document_journal>  (306) 
None

>  <bao_endpoint>  (306) 
BAO_0000190

>  <potential_duplicate>  (306) 
False

>  <uo_units>  (306) 
UO_0000065

>  <canonical_smiles>  (306) 
CSc1ccc2Sc3ccccc3N(CCC4CCCCN4C)c2c1

>  <parent_molecule_chembl_id>  (306) 
CHEMBL479

>  <assay_type>  (306) 
B

>  <src_id>  (306) 
15

>  <ligand_efficiency>  (306) 
{u'le': u'0.41', u'bei': u'20.12', u'sei': u'13.06', u'lle': u'1.9'}

>  <standard_flag>  (306) 
True

>  <molecule_chembl_id>  (306) 
CHEMBL479

>  <target_organism>  (306) 
Homo sapiens

>  <standard_units>  (306) 
nM

>  <record_id>  (306) 
1540216

>  <document_chembl_id>  (306) 
CHEMBL1909046

>  <bao_format>  (306) 
BAO_0000249

>  <data_validity_description>  (306) 
None

>  <activity_id>  (306) 
7799971

>  <standard_type>  (306) 
IC50

>  <target_chembl_id>  (306) 
CHEMBL217

>  <data_validity_comment>  (306) 
None

>  <published_value>  (306) 
0.035

>  <document_year>  (306) 
None

>  <target_pref_name>  (306) 
Dopamine D2 receptor

>  <assay_chembl_id>  (306) 
CHEMBL1909140

>  <standard_relation>  (306) 
=

>  <assay_description>  (306) 
DRUGMATRIX: Dopamine D2L radioligand binding (ligand: [3H] Spiperone)

>  <published_relation>  (306) 
=

>  <standard_value>  (306) 
35

>  <qudt_units>  (306) 
http://www.openphacts.org/units/Nanomolar

>  <target_tax_id>  (306) 
9606

>  <bao_label>  (306) 
cell membrane format

>  <published_units>  (306) 
uM

>  <pchembl_value>  (306) 
7.46

>  <published_type>  (306) 
IC50

>  <activity_comment>  (306) 
None

$$$$

     RDKit          

 28 30  0  0  0  0  0  0  0  0999 V2000
    0.0000    0.0000    0.0000 C   0  0  0  0  0  0  0  0  0  0  0  0
    0.0000    0.0000    0.0000 C   0  0  0  0  0  0  0  0  0  0  0  0
    0.0000    0.0000    0.0000 C   0  0  0  0  0  0  0  0  0  0  0  0
    0.0000    0.0000    0.0000 C   0  0  0  0  0  0  0  0  0  0  0  0
    0.0000    0.0000    0.0000 C   0  0  0  0  0  0  0  0  0  0  0  0
    0.0000    0.0000    0.0000 C   0  0  0  0  0  0  0  0  0  0  0  0
    0.0000    0.0000    0.0000 C   0  0  0  0  0  0  0  0  0  0  0  0
    0.0000    0.0000    0.0000 C   0  0  0  0  0  0  0  0  0  0  0  0
    0.0000    0.0000    0.0000 C   0  0  0  0  0  0  0  0  0  0  0  0
    0.0000    0.0000    0.0000 C   0  0  0  0  0  0  0  0  0  0  0  0
    0.0000    0.0000    0.0000 C   0  0  0  0  0  0  0  0  0  0  0  0
    0.0000    0.0000    0.0000 C   0  0  0  0  0  0  0  0  0  0  0  0
    0.0000    0.0000    0.0000 C   0  0  0  0  0  0  0  0  0  0  0  0
    0.0000    0.0000    0.0000 C   0  0  0  0  0  0  0  0  0  0  0  0
    0.0000    0.0000    0.0000 O   0  0  0  0  0  0  0  0  0  0  0  0
    0.0000    0.0000    0.0000 C   0  0  0  0  0  0  0  0  0  0  0  0
    0.0000    0.0000    0.0000 C   0  0  0  0  0  0  0  0  0  0  0  0
    0.0000    0.0000    0.0000 N   0  0  0  0  0  0  0  0  0  0  0  0
    0.0000    0.0000    0.0000 C   0  0  0  0  0  0  0  0  0  0  0  0
    0.0000    0.0000    0.0000 C   0  0  0  0  0  0  0  0  0  0  0  0
    0.0000    0.0000    0.0000 C   0  0  0  0  0  0  0  0  0  0  0  0
    0.0000    0.0000    0.0000 C   0  0  0  0  0  0  0  0  0  0  0  0
    0.0000    0.0000    0.0000 C   0  0  0  0  0  0  0  0  0  0  0  0
    0.0000    0.0000    0.0000 C   0  0  0  0  0  0  0  0  0  0  0  0
    0.0000    0.0000    0.0000 C   0  0  0  0  0  0  0  0  0  0  0  0
    0.0000    0.0000    0.0000 C   0  0  0  0  0  0  0  0  0  0  0  0
    0.0000    0.0000    0.0000 C   0  0  0  0  0  0  0  0  0  0  0  0
    0.0000    0.0000    0.0000 C   0  0  0  0  0  0  0  0  0  0  0  0
  1  2  1  0
  2  3  1  0
  3  4  2  0
  4  5  1  0
  5  6  2  0
  6  7  1  0
  7  8  2  0
  8  9  1  0
  9 10  2  0
  4 11  1  0
 11 12  2  0
 12 13  1  0
 13 14  2  0
 14 15  1  0
 15 16  1  0
 16 17  1  0
 17 18  1  0
 18 19  1  0
 18 20  1  0
 14 21  1  0
 21 22  2  0
  3 23  1  0
 23 24  2  0
 24 25  1  0
 25 26  2  0
 26 27  1  0
 27 28  2  0
 10  5  1  0
 22 11  1  0
 28 23  1  0
M  END
>  <pIC50>  (307) 
4.86

>  <ChEMBL_ID>  (307) 
CHEMBL83

>  <document_journal>  (307) 
None

>  <bao_endpoint>  (307) 
BAO_0000190

>  <potential_duplicate>  (307) 
False

>  <uo_units>  (307) 
UO_0000065

>  <canonical_smiles>  (307) 
CC\C(=C(/c1ccccc1)\c2ccc(OCCN(C)C)cc2)\c3ccccc3

>  <parent_molecule_chembl_id>  (307) 
CHEMBL83

>  <assay_type>  (307) 
B

>  <src_id>  (307) 
15

>  <ligand_efficiency>  (307) 
{u'le': u'0.24', u'bei': u'13.07', u'sei': u'38.95', u'lle': u'-1.46'}

>  <standard_flag>  (307) 
True

>  <molecule_chembl_id>  (307) 
CHEMBL83

>  <target_organism>  (307) 
Homo sapiens

>  <standard_units>  (307) 
nM

>  <record_id>  (307) 
1540192

>  <document_chembl_id>  (307) 
CHEMBL1909046

>  <bao_format>  (307) 
BAO_0000249

>  <data_validity_description>  (307) 
None

>  <activity_id>  (307) 
7801733

>  <standard_type>  (307) 
IC50

>  <target_chembl_id>  (307) 
CHEMBL217

>  <data_validity_comment>  (307) 
None

>  <published_value>  (307) 
13.885

>  <document_year>  (307) 
None

>  <target_pref_name>  (307) 
Dopamine D2 receptor

>  <assay_chembl_id>  (307) 
CHEMBL1909140

>  <standard_relation>  (307) 
=

>  <assay_description>  (307) 
DRUGMATRIX: Dopamine D2L radioligand binding (ligand: [3H] Spiperone)

>  <published_relation>  (307) 
=

>  <standard_value>  (307) 
13885

>  <qudt_units>  (307) 
http://www.openphacts.org/units/Nanomolar

>  <target_tax_id>  (307) 
9606

>  <bao_label>  (307) 
cell membrane format

>  <published_units>  (307) 
uM

>  <pchembl_value>  (307) 
4.86

>  <published_type>  (307) 
IC50

>  <activity_comment>  (307) 
None

$$$$

     RDKit          

 22 22  0  0  0  0  0  0  0  0999 V2000
    0.0000    0.0000    0.0000 C   0  0  0  0  0  0  0  0  0  0  0  0
    0.0000    0.0000    0.0000 C   0  0  0  0  0  0  0  0  0  0  0  0
    0.0000    0.0000    0.0000 N   0  0  0  0  0  0  0  0  0  0  0  0
    0.0000    0.0000    0.0000 C   0  0  0  0  0  0  0  0  0  0  0  0
    0.0000    0.0000    0.0000 C   0  0  0  0  0  0  0  0  0  0  0  0
    0.0000    0.0000    0.0000 C   0  0  0  0  0  0  0  0  0  0  0  0
    0.0000    0.0000    0.0000 C   0  0  0  0  0  0  0  0  0  0  0  0
    0.0000    0.0000    0.0000 N   0  0  0  0  0  0  0  0  0  0  0  0
    0.0000    0.0000    0.0000 C   0  0  0  0  0  0  0  0  0  0  0  0
    0.0000    0.0000    0.0000 O   0  0  0  0  0  0  0  0  0  0  0  0
    0.0000    0.0000    0.0000 C   0  0  0  0  0  0  0  0  0  0  0  0
    0.0000    0.0000    0.0000 C   0  0  0  0  0  0  0  0  0  0  0  0
    0.0000    0.0000    0.0000 C   0  0  0  0  0  0  0  0  0  0  0  0
    0.0000    0.0000    0.0000 C   0  0  0  0  0  0  0  0  0  0  0  0
    0.0000    0.0000    0.0000 C   0  0  0  0  0  0  0  0  0  0  0  0
    0.0000    0.0000    0.0000 C   0  0  0  0  0  0  0  0  0  0  0  0
    0.0000    0.0000    0.0000 O   0  0  0  0  0  0  0  0  0  0  0  0
    0.0000    0.0000    0.0000 C   0  0  0  0  0  0  0  0  0  0  0  0
    0.0000    0.0000    0.0000 S   0  0  0  0  0  0  0  0  0  0  0  0
    0.0000    0.0000    0.0000 O   0  0  0  0  0  0  0  0  0  0  0  0
    0.0000    0.0000    0.0000 O   0  0  0  0  0  0  0  0  0  0  0  0
    0.0000    0.0000    0.0000 C   0  0  0  0  0  0  0  0  0  0  0  0
  1  2  1  0
  2  3  1  0
  3  4  1  0
  4  5  1  0
  3  6  1  0
  6  7  1  0
  7  8  1  0
  8  9  1  0
  9 10  2  0
  9 11  1  0
 11 12  2  0
 12 13  1  0
 13 14  2  0
 14 15  1  0
 15 16  2  0
 16 17  1  0
 17 18  1  0
 13 19  1  0
 19 20  2  0
 19 21  2  0
 19 22  1  0
 16 11  1  0
M  END
>  <pIC50>  (308) 
5.91

>  <ChEMBL_ID>  (308) 
CHEMBL84158

>  <document_journal>  (308) 
None

>  <bao_endpoint>  (308) 
BAO_0000190

>  <potential_duplicate>  (308) 
False

>  <uo_units>  (308) 
UO_0000065

>  <canonical_smiles>  (308) 
CCN(CC)CCNC(=O)c1cc(ccc1OC)S(=O)(=O)C

>  <parent_molecule_chembl_id>  (308) 
CHEMBL84158

>  <assay_type>  (308) 
B

>  <src_id>  (308) 
15

>  <ligand_efficiency>  (308) 
{u'le': u'0.37', u'bei': u'17.99', u'sei': u'7.03', u'lle': u'4.53'}

>  <standard_flag>  (308) 
True

>  <molecule_chembl_id>  (308) 
CHEMBL84158

>  <target_organism>  (308) 
Homo sapiens

>  <standard_units>  (308) 
nM

>  <record_id>  (308) 
1540217

>  <document_chembl_id>  (308) 
CHEMBL1909046

>  <bao_format>  (308) 
BAO_0000249

>  <data_validity_description>  (308) 
None

>  <activity_id>  (308) 
7804278

>  <standard_type>  (308) 
IC50

>  <target_chembl_id>  (308) 
CHEMBL217

>  <data_validity_comment>  (308) 
None

>  <published_value>  (308) 
1.232

>  <document_year>  (308) 
None

>  <target_pref_name>  (308) 
Dopamine D2 receptor

>  <assay_chembl_id>  (308) 
CHEMBL1909140

>  <standard_relation>  (308) 
=

>  <assay_description>  (308) 
DRUGMATRIX: Dopamine D2L radioligand binding (ligand: [3H] Spiperone)

>  <published_relation>  (308) 
=

>  <standard_value>  (308) 
1232

>  <qudt_units>  (308) 
http://www.openphacts.org/units/Nanomolar

>  <target_tax_id>  (308) 
9606

>  <bao_label>  (308) 
cell membrane format

>  <published_units>  (308) 
uM

>  <pchembl_value>  (308) 
5.91

>  <published_type>  (308) 
IC50

>  <activity_comment>  (308) 
None

$$$$

     RDKit          

 30 34  0  0  0  0  0  0  0  0999 V2000
    0.0000    0.0000    0.0000 C   0  0  0  0  0  0  0  0  0  0  0  0
    0.0000    0.0000    0.0000 C   0  0  0  0  0  0  0  0  0  0  0  0
    0.0000    0.0000    0.0000 C   0  0  0  0  0  0  0  0  0  0  0  0
    0.0000    0.0000    0.0000 C   0  0  0  0  0  0  0  0  0  0  0  0
    0.0000    0.0000    0.0000 C   0  0  0  0  0  0  0  0  0  0  0  0
    0.0000    0.0000    0.0000 N   0  0  0  0  0  0  0  0  0  0  0  0
    0.0000    0.0000    0.0000 C   0  0  0  0  0  0  0  0  0  0  0  0
    0.0000    0.0000    0.0000 C   0  0  0  0  0  0  0  0  0  0  0  0
    0.0000    0.0000    0.0000 C   0  0  0  0  0  0  0  0  0  0  0  0
    0.0000    0.0000    0.0000 C   0  0  0  0  0  0  0  0  0  0  0  0
    0.0000    0.0000    0.0000 C   0  0  0  0  0  0  0  0  0  0  0  0
    0.0000    0.0000    0.0000 C   0  0  0  0  0  0  0  0  0  0  0  0
    0.0000    0.0000    0.0000 N   0  0  0  0  0  0  0  0  0  0  0  0
    0.0000    0.0000    0.0000 O   0  0  0  0  0  0  0  0  0  0  0  0
    0.0000    0.0000    0.0000 C   0  0  0  0  0  0  0  0  0  0  0  0
    0.0000    0.0000    0.0000 C   0  0  0  0  0  0  0  0  0  0  0  0
    0.0000    0.0000    0.0000 C   0  0  0  0  0  0  0  0  0  0  0  0
    0.0000    0.0000    0.0000 F   0  0  0  0  0  0  0  0  0  0  0  0
    0.0000    0.0000    0.0000 C   0  0  0  0  0  0  0  0  0  0  0  0
    0.0000    0.0000    0.0000 C   0  0  0  0  0  0  0  0  0  0  0  0
    0.0000    0.0000    0.0000 C   0  0  0  0  0  0  0  0  0  0  0  0
    0.0000    0.0000    0.0000 C   0  0  0  0  0  0  0  0  0  0  0  0
    0.0000    0.0000    0.0000 O   0  0  0  0  0  0  0  0  0  0  0  0
    0.0000    0.0000    0.0000 N   0  0  0  0  0  0  0  0  0  0  0  0
    0.0000    0.0000    0.0000 C   0  0  0  0  0  0  0  0  0  0  0  0
    0.0000    0.0000    0.0000 C   0  0  0  0  0  0  0  0  0  0  0  0
    0.0000    0.0000    0.0000 C   0  0  0  0  0  0  0  0  0  0  0  0
    0.0000    0.0000    0.0000 C   0  0  0  0  0  0  0  0  0  0  0  0
    0.0000    0.0000    0.0000 C   0  0  0  0  0  0  0  0  0  0  0  0
    0.0000    0.0000    0.0000 N   0  0  0  0  0  0  0  0  0  0  0  0
  1  2  1  0
  2  3  2  0
  3  4  1  0
  4  5  1  0
  5  6  1  0
  6  7  1  0
  7  8  1  0
  8  9  1  0
  9 10  1  0
 10 11  1  0
  9 12  1  0
 12 13  2  0
 13 14  1  0
 14 15  1  0
 15 16  2  0
 16 17  1  0
 17 18  1  0
 17 19  2  0
 19 20  1  0
 20 21  2  0
  3 22  1  0
 22 23  2  0
 22 24  1  0
 24 25  1  0
 25 26  1  0
 26 27  1  0
 27 28  1  0
 28 29  1  0
 29 30  2  0
 30  2  1  0
 11  6  1  0
 21 12  1  0
 21 15  1  0
 29 24  1  0
M  END
>  <pIC50>  (309) 
7.7

>  <ChEMBL_ID>  (309) 
CHEMBL85

>  <document_journal>  (309) 
None

>  <bao_endpoint>  (309) 
BAO_0000190

>  <potential_duplicate>  (309) 
False

>  <uo_units>  (309) 
UO_0000065

>  <canonical_smiles>  (309) 
CC1=C(CCN2CCC(CC2)c3noc4cc(F)ccc34)C(=O)N5CCCCC5=N1

>  <parent_molecule_chembl_id>  (309) 
CHEMBL85

>  <assay_type>  (309) 
B

>  <src_id>  (309) 
15

>  <ligand_efficiency>  (309) 
{u'le': u'0.35', u'bei': u'18.76', u'sei': u'12.43', u'lle': u'4.38'}

>  <standard_flag>  (309) 
True

>  <molecule_chembl_id>  (309) 
CHEMBL85

>  <target_organism>  (309) 
Homo sapiens

>  <standard_units>  (309) 
nM

>  <record_id>  (309) 
1540120

>  <document_chembl_id>  (309) 
CHEMBL1909046

>  <bao_format>  (309) 
BAO_0000249

>  <data_validity_description>  (309) 
None

>  <activity_id>  (309) 
7804879

>  <standard_type>  (309) 
IC50

>  <target_chembl_id>  (309) 
CHEMBL217

>  <data_validity_comment>  (309) 
None

>  <published_value>  (309) 
0.02

>  <document_year>  (309) 
None

>  <target_pref_name>  (309) 
Dopamine D2 receptor

>  <assay_chembl_id>  (309) 
CHEMBL1909140

>  <standard_relation>  (309) 
=

>  <assay_description>  (309) 
DRUGMATRIX: Dopamine D2L radioligand binding (ligand: [3H] Spiperone)

>  <published_relation>  (309) 
=

>  <standard_value>  (309) 
20

>  <qudt_units>  (309) 
http://www.openphacts.org/units/Nanomolar

>  <target_tax_id>  (309) 
9606

>  <bao_label>  (309) 
cell membrane format

>  <published_units>  (309) 
uM

>  <pchembl_value>  (309) 
7.7

>  <published_type>  (309) 
IC50

>  <activity_comment>  (309) 
None

$$$$

     RDKit          

 35 38  0  0  0  0  0  0  0  0999 V2000
    0.0000    0.0000    0.0000 C   0  0  0  0  0  0  0  0  0  0  0  0
    0.0000    0.0000    0.0000 C   0  0  0  0  0  0  0  0  0  0  0  0
    0.0000    0.0000    0.0000 C   0  0  0  0  0  0  0  0  0  0  0  0
    0.0000    0.0000    0.0000 C   0  0  0  0  0  0  0  0  0  0  0  0
    0.0000    0.0000    0.0000 C   0  0  0  0  0  0  0  0  0  0  0  0
    0.0000    0.0000    0.0000 C   0  0  0  0  0  0  0  0  0  0  0  0
    0.0000    0.0000    0.0000 C   0  0  0  0  0  0  0  0  0  0  0  0
    0.0000    0.0000    0.0000 C   0  0  0  0  0  0  0  0  0  0  0  0
    0.0000    0.0000    0.0000 C   0  0  0  0  0  0  0  0  0  0  0  0
    0.0000    0.0000    0.0000 C   0  0  0  0  0  0  0  0  0  0  0  0
    0.0000    0.0000    0.0000 C   0  0  0  0  0  0  0  0  0  0  0  0
    0.0000    0.0000    0.0000 O   0  0  0  0  0  0  0  0  0  0  0  0
    0.0000    0.0000    0.0000 C   0  0  0  0  0  0  0  0  0  0  0  0
    0.0000    0.0000    0.0000 C   0  0  0  0  0  0  0  0  0  0  0  0
    0.0000    0.0000    0.0000 C   0  0  0  0  0  0  0  0  0  0  0  0
    0.0000    0.0000    0.0000 N   0  0  0  0  0  0  0  0  0  0  0  0
    0.0000    0.0000    0.0000 C   0  0  0  0  0  0  0  0  0  0  0  0
    0.0000    0.0000    0.0000 C   0  0  0  0  0  0  0  0  0  0  0  0
    0.0000    0.0000    0.0000 C   0  0  0  0  0  0  0  0  0  0  0  0
    0.0000    0.0000    0.0000 C   0  0  0  0  0  0  0  0  0  0  0  0
    0.0000    0.0000    0.0000 C   0  0  0  0  0  0  0  0  0  0  0  0
    0.0000    0.0000    0.0000 C   0  0  0  0  0  0  0  0  0  0  0  0
    0.0000    0.0000    0.0000 O   0  0  0  0  0  0  0  0  0  0  0  0
    0.0000    0.0000    0.0000 C   0  0  0  0  0  0  0  0  0  0  0  0
    0.0000    0.0000    0.0000 C   0  0  0  0  0  0  0  0  0  0  0  0
    0.0000    0.0000    0.0000 C   0  0  0  0  0  0  0  0  0  0  0  0
    0.0000    0.0000    0.0000 C   0  0  0  0  0  0  0  0  0  0  0  0
    0.0000    0.0000    0.0000 C   0  0  0  0  0  0  0  0  0  0  0  0
    0.0000    0.0000    0.0000 C   0  0  0  0  0  0  0  0  0  0  0  0
    0.0000    0.0000    0.0000 C   0  0  0  0  0  0  0  0  0  0  0  0
    0.0000    0.0000    0.0000 C   0  0  0  0  0  0  0  0  0  0  0  0
    0.0000    0.0000    0.0000 C   0  0  0  0  0  0  0  0  0  0  0  0
    0.0000    0.0000    0.0000 C   0  0  0  0  0  0  0  0  0  0  0  0
    0.0000    0.0000    0.0000 C   0  0  0  0  0  0  0  0  0  0  0  0
    0.0000    0.0000    0.0000 C   0  0  0  0  0  0  0  0  0  0  0  0
  1  2  1  0
  2  3  1  0
  2  4  1  0
  2  5  1  0
  5  6  2  0
  6  7  1  0
  7  8  2  0
  8  9  1  0
  9 10  2  0
  8 11  1  0
 11 12  1  0
 11 13  1  0
 13 14  1  0
 14 15  1  0
 15 16  1  0
 16 17  1  0
 17 18  1  0
 18 19  1  0
 19 20  1  0
 20 21  1  0
 19 22  1  0
 22 23  1  0
 22 24  1  0
 24 25  2  0
 25 26  1  0
 26 27  2  0
 27 28  1  0
 28 29  2  0
 22 30  1  0
 30 31  2  0
 31 32  1  0
 32 33  2  0
 33 34  1  0
 34 35  2  0
 10  5  1  0
 21 16  1  0
 29 24  1  0
 35 30  1  0
M  END
>  <pIC50>  (310) 
5.21

>  <ChEMBL_ID>  (310) 
CHEMBL17157

>  <document_journal>  (310) 
None

>  <bao_endpoint>  (310) 
BAO_0000190

>  <potential_duplicate>  (310) 
False

>  <uo_units>  (310) 
UO_0000065

>  <canonical_smiles>  (310) 
CC(C)(C)c1ccc(cc1)C(O)CCCN2CCC(CC2)C(O)(c3ccccc3)c4ccccc4

>  <parent_molecule_chembl_id>  (310) 
CHEMBL17157

>  <assay_type>  (310) 
B

>  <src_id>  (310) 
15

>  <ligand_efficiency>  (310) 
{u'le': u'0.2', u'bei': u'11.05', u'sei': u'11.92', u'lle': u'-1.29'}

>  <standard_flag>  (310) 
True

>  <molecule_chembl_id>  (310) 
CHEMBL17157

>  <target_organism>  (310) 
Homo sapiens

>  <standard_units>  (310) 
nM

>  <record_id>  (310) 
1540204

>  <document_chembl_id>  (310) 
CHEMBL1909046

>  <bao_format>  (310) 
BAO_0000249

>  <data_validity_description>  (310) 
None

>  <activity_id>  (310) 
7818952

>  <standard_type>  (310) 
IC50

>  <target_chembl_id>  (310) 
CHEMBL217

>  <data_validity_comment>  (310) 
None

>  <published_value>  (310) 
6.167

>  <document_year>  (310) 
None

>  <target_pref_name>  (310) 
Dopamine D2 receptor

>  <assay_chembl_id>  (310) 
CHEMBL1909140

>  <standard_relation>  (310) 
=

>  <assay_description>  (310) 
DRUGMATRIX: Dopamine D2L radioligand binding (ligand: [3H] Spiperone)

>  <published_relation>  (310) 
=

>  <standard_value>  (310) 
6167

>  <qudt_units>  (310) 
http://www.openphacts.org/units/Nanomolar

>  <target_tax_id>  (310) 
9606

>  <bao_label>  (310) 
cell membrane format

>  <published_units>  (310) 
uM

>  <pchembl_value>  (310) 
5.21

>  <published_type>  (310) 
IC50

>  <activity_comment>  (310) 
None

$$$$

     RDKit          

 34 38  0  0  0  0  0  0  0  0999 V2000
    0.0000    0.0000    0.0000 O   0  0  0  0  0  0  0  0  0  0  0  0
    0.0000    0.0000    0.0000 C   0  0  0  0  0  0  0  0  0  0  0  0
    0.0000    0.0000    0.0000 C   0  0  0  0  0  0  0  0  0  0  0  0
    0.0000    0.0000    0.0000 C   0  0  0  0  0  0  0  0  0  0  0  0
    0.0000    0.0000    0.0000 C   0  0  0  0  0  0  0  0  0  0  0  0
    0.0000    0.0000    0.0000 C   0  0  0  0  0  0  0  0  0  0  0  0
    0.0000    0.0000    0.0000 C   0  0  0  0  0  0  0  0  0  0  0  0
    0.0000    0.0000    0.0000 C   0  0  0  0  0  0  0  0  0  0  0  0
    0.0000    0.0000    0.0000 S   0  0  0  0  0  0  0  0  0  0  0  0
    0.0000    0.0000    0.0000 C   0  0  0  0  0  0  0  0  0  0  0  0
    0.0000    0.0000    0.0000 C   0  0  0  0  0  0  0  0  0  0  0  0
    0.0000    0.0000    0.0000 C   0  0  0  0  0  0  0  0  0  0  0  0
    0.0000    0.0000    0.0000 O   0  0  0  0  0  0  0  0  0  0  0  0
    0.0000    0.0000    0.0000 C   0  0  0  0  0  0  0  0  0  0  0  0
    0.0000    0.0000    0.0000 C   0  0  0  0  0  0  0  0  0  0  0  0
    0.0000    0.0000    0.0000 C   0  0  0  0  0  0  0  0  0  0  0  0
    0.0000    0.0000    0.0000 C   0  0  0  0  0  0  0  0  0  0  0  0
    0.0000    0.0000    0.0000 C   0  0  0  0  0  0  0  0  0  0  0  0
    0.0000    0.0000    0.0000 O   0  0  0  0  0  0  0  0  0  0  0  0
    0.0000    0.0000    0.0000 C   0  0  0  0  0  0  0  0  0  0  0  0
    0.0000    0.0000    0.0000 C   0  0  0  0  0  0  0  0  0  0  0  0
    0.0000    0.0000    0.0000 C   0  0  0  0  0  0  0  0  0  0  0  0
    0.0000    0.0000    0.0000 C   0  0  0  0  0  0  0  0  0  0  0  0
    0.0000    0.0000    0.0000 O   0  0  0  0  0  0  0  0  0  0  0  0
    0.0000    0.0000    0.0000 C   0  0  0  0  0  0  0  0  0  0  0  0
    0.0000    0.0000    0.0000 C   0  0  0  0  0  0  0  0  0  0  0  0
    0.0000    0.0000    0.0000 N   0  0  0  0  0  0  0  0  0  0  0  0
    0.0000    0.0000    0.0000 C   0  0  0  0  0  0  0  0  0  0  0  0
    0.0000    0.0000    0.0000 C   0  0  0  0  0  0  0  0  0  0  0  0
    0.0000    0.0000    0.0000 C   0  0  0  0  0  0  0  0  0  0  0  0
    0.0000    0.0000    0.0000 C   0  0  0  0  0  0  0  0  0  0  0  0
    0.0000    0.0000    0.0000 C   0  0  0  0  0  0  0  0  0  0  0  0
    0.0000    0.0000    0.0000 C   0  0  0  0  0  0  0  0  0  0  0  0
    0.0000    0.0000    0.0000 C   0  0  0  0  0  0  0  0  0  0  0  0
  1  2  1  0
  2  3  2  0
  3  4  1  0
  4  5  2  0
  5  6  1  0
  6  7  2  0
  5  8  1  0
  8  9  1  0
  9 10  1  0
 10 11  2  0
 11 12  1  0
 12 13  1  0
 12 14  2  0
 14 15  1  0
 15 16  2  0
 16 17  1  0
 17 18  1  0
 18 19  2  0
 18 20  1  0
 20 21  2  0
 21 22  1  0
 22 23  2  0
 23 24  1  0
 24 25  1  0
 25 26  1  0
 26 27  1  0
 27 28  1  0
 28 29  1  0
 29 30  1  0
 30 31  1  0
 31 32  1  0
 23 33  1  0
 33 34  2  0
  7  2  1  0
 17  8  2  0
 16 10  1  0
 34 20  1  0
 32 27  1  0
M  END
>  <pIC50>  (311) 
5.93

>  <ChEMBL_ID>  (311) 
CHEMBL81

>  <document_journal>  (311) 
None

>  <bao_endpoint>  (311) 
BAO_0000190

>  <potential_duplicate>  (311) 
False

>  <uo_units>  (311) 
UO_0000065

>  <canonical_smiles>  (311) 
Oc1ccc(cc1)c2sc3cc(O)ccc3c2C(=O)c4ccc(OCCN5CCCCC5)cc4

>  <parent_molecule_chembl_id>  (311) 
CHEMBL81

>  <assay_type>  (311) 
B

>  <src_id>  (311) 
15

>  <ligand_efficiency>  (311) 
{u'le': u'0.24', u'bei': u'12.52', u'sei': u'6.04', u'lle': u'-0.53'}

>  <standard_flag>  (311) 
True

>  <molecule_chembl_id>  (311) 
CHEMBL81

>  <target_organism>  (311) 
Homo sapiens

>  <standard_units>  (311) 
nM

>  <record_id>  (311) 
1540107

>  <document_chembl_id>  (311) 
CHEMBL1909046

>  <bao_format>  (311) 
BAO_0000249

>  <data_validity_description>  (311) 
None

>  <activity_id>  (311) 
7819508

>  <standard_type>  (311) 
IC50

>  <target_chembl_id>  (311) 
CHEMBL217

>  <data_validity_comment>  (311) 
None

>  <published_value>  (311) 
1.174

>  <document_year>  (311) 
None

>  <target_pref_name>  (311) 
Dopamine D2 receptor

>  <assay_chembl_id>  (311) 
CHEMBL1909140

>  <standard_relation>  (311) 
=

>  <assay_description>  (311) 
DRUGMATRIX: Dopamine D2L radioligand binding (ligand: [3H] Spiperone)

>  <published_relation>  (311) 
=

>  <standard_value>  (311) 
1174

>  <qudt_units>  (311) 
http://www.openphacts.org/units/Nanomolar

>  <target_tax_id>  (311) 
9606

>  <bao_label>  (311) 
cell membrane format

>  <published_units>  (311) 
uM

>  <pchembl_value>  (311) 
5.93

>  <published_type>  (311) 
IC50

>  <activity_comment>  (311) 
None

$$$$

     RDKit          

 24 25  0  0  0  0  0  0  0  0999 V2000
    0.0000    0.0000    0.0000 C   0  0  0  0  0  0  0  0  0  0  0  0
    0.0000    0.0000    0.0000 C   0  0  0  0  0  0  0  0  0  0  0  0
    0.0000    0.0000    0.0000 O   0  0  0  0  0  0  0  0  0  0  0  0
    0.0000    0.0000    0.0000 C   0  0  0  0  0  0  0  0  0  0  0  0
    0.0000    0.0000    0.0000 O   0  0  0  0  0  0  0  0  0  0  0  0
    0.0000    0.0000    0.0000 N   0  0  0  0  0  0  0  0  0  0  0  0
    0.0000    0.0000    0.0000 C   0  0  0  0  0  0  0  0  0  0  0  0
    0.0000    0.0000    0.0000 C   0  0  0  0  0  0  0  0  0  0  0  0
    0.0000    0.0000    0.0000 C   0  0  0  0  0  0  0  0  0  0  0  0
    0.0000    0.0000    0.0000 C   0  0  0  0  0  0  0  0  0  0  0  0
    0.0000    0.0000    0.0000 C   0  0  0  0  0  0  0  0  0  0  0  0
    0.0000    0.0000    0.0000 N   0  0  0  0  0  0  0  0  0  0  0  0
    0.0000    0.0000    0.0000 C   0  0  0  0  0  0  0  0  0  0  0  0
    0.0000    0.0000    0.0000 C   0  0  0  0  0  0  0  0  0  0  0  0
    0.0000    0.0000    0.0000 N   0  0  0  0  0  0  0  0  0  0  0  0
    0.0000    0.0000    0.0000 C   0  0  0  0  0  0  0  0  0  0  0  0
    0.0000    0.0000    0.0000 O   0  0  0  0  0  0  0  0  0  0  0  0
    0.0000    0.0000    0.0000 C   0  0  0  0  0  0  0  0  0  0  0  0
    0.0000    0.0000    0.0000 C   0  0  0  0  0  0  0  0  0  0  0  0
    0.0000    0.0000    0.0000 C   0  0  0  0  0  0  0  0  0  0  0  0
    0.0000    0.0000    0.0000 C   0  0  0  0  0  0  0  0  0  0  0  0
    0.0000    0.0000    0.0000 C   0  0  0  0  0  0  0  0  0  0  0  0
    0.0000    0.0000    0.0000 C   0  0  0  0  0  0  0  0  0  0  0  0
    0.0000    0.0000    0.0000 C   0  0  0  0  0  0  0  0  0  0  0  0
  1  2  1  0
  2  3  1  0
  3  4  1  0
  4  5  2  0
  4  6  1  0
  6  7  1  0
  7  8  1  0
  8  9  1  0
  9 10  1  0
 10 11  1  0
  9 12  1  0
 12 13  1  0
 13 14  1  0
 14 15  1  0
 15 16  1  0
 16 17  2  0
 16 18  1  0
 18 19  2  0
 19 20  1  0
 20 21  2  0
 21 22  1  0
 22 23  2  0
 23 24  1  0
 11  6  1  0
 23 18  1  0
M  END
>  <pIC50>  (312) 
5.35

>  <ChEMBL_ID>  (312) 
CHEMBL1624037

>  <document_journal>  (312) 
Bioorg. Med. Chem. Lett.

>  <bao_endpoint>  (312) 
BAO_0000190

>  <potential_duplicate>  (312) 
False

>  <uo_units>  (312) 
UO_0000065

>  <canonical_smiles>  (312) 
CCOC(=O)N1CCC(CC1)NCCNC(=O)c2ccccc2C

>  <parent_molecule_chembl_id>  (312) 
CHEMBL1624037

>  <assay_type>  (312) 
F

>  <src_id>  (312) 
1

>  <ligand_efficiency>  (312) 
None

>  <standard_flag>  (312) 
True

>  <molecule_chembl_id>  (312) 
CHEMBL1624037

>  <target_organism>  (312) 
Homo sapiens

>  <standard_units>  (312) 
nM

>  <record_id>  (312) 
1558621

>  <document_chembl_id>  (312) 
CHEMBL1914417

>  <bao_format>  (312) 
BAO_0000019

>  <data_validity_description>  (312) 
None

>  <activity_id>  (312) 
7929956

>  <standard_type>  (312) 
IC50

>  <target_chembl_id>  (312) 
CHEMBL217

>  <data_validity_comment>  (312) 
None

>  <published_value>  (312) 
4.5

>  <document_year>  (312) 
2011

>  <target_pref_name>  (312) 
Dopamine D2 receptor

>  <assay_chembl_id>  (312) 
CHEMBL1919022

>  <standard_relation>  (312) 
=

>  <assay_description>  (312) 
Antagonist activity at dopamine D2 receptor

>  <published_relation>  (312) 
=

>  <standard_value>  (312) 
4500

>  <qudt_units>  (312) 
http://www.openphacts.org/units/Nanomolar

>  <target_tax_id>  (312) 
9606

>  <bao_label>  (312) 
assay format

>  <published_units>  (312) 
uM

>  <pchembl_value>  (312) 
5.35

>  <published_type>  (312) 
IC50

>  <activity_comment>  (312) 
None

$$$$

     RDKit          

 33 38  0  0  0  0  0  0  0  0999 V2000
    0.0000    0.0000    0.0000 C   0  0  0  0  0  0  0  0  0  0  0  0
    0.0000    0.0000    0.0000 C   0  0  0  0  0  0  0  0  0  0  0  0
    0.0000    0.0000    0.0000 O   0  0  0  0  0  0  0  0  0  0  0  0
    0.0000    0.0000    0.0000 N   0  0  0  0  0  0  0  0  0  0  0  0
    0.0000    0.0000    0.0000 C   0  0  0  0  0  0  0  0  0  0  0  0
    0.0000    0.0000    0.0000 C   0  0  0  0  0  0  0  0  0  0  0  0
    0.0000    0.0000    0.0000 C   0  0  0  0  0  0  0  0  0  0  0  0
    0.0000    0.0000    0.0000 C   0  0  0  0  0  0  0  0  0  0  0  0
    0.0000    0.0000    0.0000 C   0  0  0  0  0  0  0  0  0  0  0  0
    0.0000    0.0000    0.0000 N   0  0  0  0  0  0  0  0  0  0  0  0
    0.0000    0.0000    0.0000 C   0  0  0  0  0  0  0  0  0  0  0  0
    0.0000    0.0000    0.0000 C   0  0  0  0  0  0  0  0  0  0  0  0
    0.0000    0.0000    0.0000 C   0  0  0  0  0  0  0  0  0  0  0  0
    0.0000    0.0000    0.0000 C   0  0  0  0  0  0  0  0  0  0  0  0
    0.0000    0.0000    0.0000 C   0  0  0  0  0  0  0  0  0  0  0  0
    0.0000    0.0000    0.0000 N   0  0  0  0  0  0  0  0  0  0  0  0
    0.0000    0.0000    0.0000 C   0  0  0  0  0  0  0  0  0  0  0  0
    0.0000    0.0000    0.0000 C   0  0  0  0  0  0  0  0  0  0  0  0
    0.0000    0.0000    0.0000 C   0  0  0  0  0  0  0  0  0  0  0  0
    0.0000    0.0000    0.0000 C   0  0  0  0  0  0  0  0  0  0  0  0
    0.0000    0.0000    0.0000 Cl  0  0  0  0  0  0  0  0  0  0  0  0
    0.0000    0.0000    0.0000 C   0  0  0  0  0  0  0  0  0  0  0  0
    0.0000    0.0000    0.0000 C   0  0  0  0  0  0  0  0  0  0  0  0
    0.0000    0.0000    0.0000 C   0  0  0  0  0  0  0  0  0  0  0  0
    0.0000    0.0000    0.0000 C   0  0  0  0  0  0  0  0  0  0  0  0
    0.0000    0.0000    0.0000 C   0  0  0  0  0  0  0  0  0  0  0  0
    0.0000    0.0000    0.0000 C   0  0  0  0  0  0  0  0  0  0  0  0
    0.0000    0.0000    0.0000 C   0  0  0  0  0  0  0  0  0  0  0  0
    0.0000    0.0000    0.0000 C   0  0  0  0  0  0  0  0  0  0  0  0
    0.0000    0.0000    0.0000 C   0  0  0  0  0  0  0  0  0  0  0  0
    0.0000    0.0000    0.0000 C   0  0  0  0  0  0  0  0  0  0  0  0
    0.0000    0.0000    0.0000 C   0  0  0  0  0  0  0  0  0  0  0  0
    0.0000    0.0000    0.0000 C   0  0  0  0  0  0  0  0  0  0  0  0
  1  2  1  0
  2  3  2  0
  2  4  1  0
  4  5  1  0
  5  6  1  0
  6  7  1  0
  7  8  1  0
  8  9  1  0
  9 10  1  0
 10 11  1  0
 11 12  1  0
 12 13  2  0
 13 14  1  0
 14 15  2  0
 15 16  1  0
 16 17  1  0
 17 18  2  0
 18 19  1  0
 19 20  2  0
 20 21  1  0
 20 22  1  0
 22 23  2  0
 23 24  1  0
 24 25  2  0
 10 26  1  0
 26 27  1  0
  7 28  1  0
 28 29  2  0
 29 30  1  0
 30 31  2  0
 31 32  1  0
 32 33  2  0
 33  5  1  0
 27  7  1  0
 25 12  1  0
 24 15  1  0
 23 17  1  0
 33 28  1  0
M  END
>  <pIC50>  (313) 
6.3

>  <ChEMBL_ID>  (313) 
CHEMBL1934127

>  <document_journal>  (313) 
Bioorg. Med. Chem. Lett.

>  <bao_endpoint>  (313) 
BAO_0000190

>  <potential_duplicate>  (313) 
False

>  <uo_units>  (313) 
UO_0000065

>  <canonical_smiles>  (313) 
CC(=O)N[C@@H]1CC2(CCN(Cc3ccc4[nH]c5ccc(Cl)cc5c4c3)CC2)c6ccccc16

>  <parent_molecule_chembl_id>  (313) 
CHEMBL1934127

>  <assay_type>  (313) 
B

>  <src_id>  (313) 
1

>  <ligand_efficiency>  (313) 
{u'le': u'0.26', u'bei': u'13.76', u'sei': u'13.09', u'lle': u'1.09'}

>  <standard_flag>  (313) 
True

>  <molecule_chembl_id>  (313) 
CHEMBL1934127

>  <target_organism>  (313) 
Homo sapiens

>  <standard_units>  (313) 
nM

>  <record_id>  (313) 
1568082

>  <document_chembl_id>  (313) 
CHEMBL1932960

>  <bao_format>  (313) 
BAO_0000357

>  <data_validity_description>  (313) 
None

>  <activity_id>  (313) 
7989732

>  <standard_type>  (313) 
IC50

>  <target_chembl_id>  (313) 
CHEMBL217

>  <data_validity_comment>  (313) 
None

>  <published_value>  (313) 
0.5

>  <document_year>  (313) 
2012

>  <target_pref_name>  (313) 
Dopamine D2 receptor

>  <assay_chembl_id>  (313) 
CHEMBL1936809

>  <standard_relation>  (313) 
=

>  <assay_description>  (313) 
Inhibition of dopamine D2 receptor

>  <published_relation>  (313) 
=

>  <standard_value>  (313) 
500

>  <qudt_units>  (313) 
http://www.openphacts.org/units/Nanomolar

>  <target_tax_id>  (313) 
9606

>  <bao_label>  (313) 
single protein format

>  <published_units>  (313) 
uM

>  <pchembl_value>  (313) 
6.3

>  <published_type>  (313) 
IC50

>  <activity_comment>  (313) 
None

$$$$

     RDKit          

 35 40  0  0  0  0  0  0  0  0999 V2000
    0.0000    0.0000    0.0000 C   0  0  0  0  0  0  0  0  0  0  0  0
    0.0000    0.0000    0.0000 C   0  0  0  0  0  0  0  0  0  0  0  0
    0.0000    0.0000    0.0000 O   0  0  0  0  0  0  0  0  0  0  0  0
    0.0000    0.0000    0.0000 N   0  0  0  0  0  0  0  0  0  0  0  0
    0.0000    0.0000    0.0000 C   0  0  0  0  0  0  0  0  0  0  0  0
    0.0000    0.0000    0.0000 C   0  0  0  0  0  0  0  0  0  0  0  0
    0.0000    0.0000    0.0000 C   0  0  0  0  0  0  0  0  0  0  0  0
    0.0000    0.0000    0.0000 C   0  0  0  0  0  0  0  0  0  0  0  0
    0.0000    0.0000    0.0000 C   0  0  0  0  0  0  0  0  0  0  0  0
    0.0000    0.0000    0.0000 N   0  0  0  0  0  0  0  0  0  0  0  0
    0.0000    0.0000    0.0000 C   0  0  0  0  0  0  0  0  0  0  0  0
    0.0000    0.0000    0.0000 C   0  0  0  0  0  0  0  0  0  0  0  0
    0.0000    0.0000    0.0000 C   0  0  0  0  0  0  0  0  0  0  0  0
    0.0000    0.0000    0.0000 C   0  0  0  0  0  0  0  0  0  0  0  0
    0.0000    0.0000    0.0000 C   0  0  0  0  0  0  0  0  0  0  0  0
    0.0000    0.0000    0.0000 C   0  0  0  0  0  0  0  0  0  0  0  0
    0.0000    0.0000    0.0000 C   0  0  0  0  0  0  0  0  0  0  0  0
    0.0000    0.0000    0.0000 C   0  0  0  0  0  0  0  0  0  0  0  0
    0.0000    0.0000    0.0000 C   0  0  0  0  0  0  0  0  0  0  0  0
    0.0000    0.0000    0.0000 C   0  0  0  0  0  0  0  0  0  0  0  0
    0.0000    0.0000    0.0000 C   0  0  0  0  0  0  0  0  0  0  0  0
    0.0000    0.0000    0.0000 C   0  0  0  0  0  0  0  0  0  0  0  0
    0.0000    0.0000    0.0000 C   0  0  0  0  0  0  0  0  0  0  0  0
    0.0000    0.0000    0.0000 N   0  0  0  0  0  0  0  0  0  0  0  0
    0.0000    0.0000    0.0000 C   0  0  0  0  0  0  0  0  0  0  0  0
    0.0000    0.0000    0.0000 O   0  0  0  0  0  0  0  0  0  0  0  0
    0.0000    0.0000    0.0000 N   0  0  0  0  0  0  0  0  0  0  0  0
    0.0000    0.0000    0.0000 C   0  0  0  0  0  0  0  0  0  0  0  0
    0.0000    0.0000    0.0000 C   0  0  0  0  0  0  0  0  0  0  0  0
    0.0000    0.0000    0.0000 C   0  0  0  0  0  0  0  0  0  0  0  0
    0.0000    0.0000    0.0000 C   0  0  0  0  0  0  0  0  0  0  0  0
    0.0000    0.0000    0.0000 C   0  0  0  0  0  0  0  0  0  0  0  0
    0.0000    0.0000    0.0000 C   0  0  0  0  0  0  0  0  0  0  0  0
    0.0000    0.0000    0.0000 C   0  0  0  0  0  0  0  0  0  0  0  0
    0.0000    0.0000    0.0000 C   0  0  0  0  0  0  0  0  0  0  0  0
  1  2  1  0
  2  3  2  0
  2  4  1  0
  4  5  1  0
  5  6  1  0
  6  7  1  0
  7  8  1  0
  8  9  1  0
  9 10  1  0
 10 11  1  0
 11 12  1  0
 12 13  2  0
 13 14  1  0
 14 15  2  0
 15 16  1  0
 16 17  2  0
 16 18  1  0
 18 19  2  0
 19 20  1  0
 20 21  2  0
 21 22  1  0
 22 23  2  0
 23 24  1  0
 24 25  1  0
 25 26  2  0
 25 27  1  0
 10 28  1  0
 28 29  1  0
  7 30  1  0
 30 31  2  0
 31 32  1  0
 32 33  2  0
 33 34  1  0
 34 35  2  0
 35  5  1  0
 29  7  1  0
 17 12  1  0
 24 15  1  0
 23 18  1  0
 35 30  1  0
M  END
>  <pIC50>  (314) 
5.82

>  <ChEMBL_ID>  (314) 
CHEMBL1934130

>  <document_journal>  (314) 
Bioorg. Med. Chem. Lett.

>  <bao_endpoint>  (314) 
BAO_0000190

>  <potential_duplicate>  (314) 
False

>  <uo_units>  (314) 
UO_0000065

>  <canonical_smiles>  (314) 
CC(=O)N[C@@H]1CC2(CCN(Cc3ccc4c(c3)c5ccccc5n4C(=O)N)CC2)c6ccccc16

>  <parent_molecule_chembl_id>  (314) 
CHEMBL1934130

>  <assay_type>  (314) 
B

>  <src_id>  (314) 
1

>  <ligand_efficiency>  (314) 
{u'le': u'0.23', u'bei': u'12.48', u'sei': u'7.25', u'lle': u'1.49'}

>  <standard_flag>  (314) 
True

>  <molecule_chembl_id>  (314) 
CHEMBL1934130

>  <target_organism>  (314) 
Homo sapiens

>  <standard_units>  (314) 
nM

>  <record_id>  (314) 
1568085

>  <document_chembl_id>  (314) 
CHEMBL1932960

>  <bao_format>  (314) 
BAO_0000357

>  <data_validity_description>  (314) 
None

>  <activity_id>  (314) 
7989759

>  <standard_type>  (314) 
IC50

>  <target_chembl_id>  (314) 
CHEMBL217

>  <data_validity_comment>  (314) 
None

>  <published_value>  (314) 
1.5

>  <document_year>  (314) 
2012

>  <target_pref_name>  (314) 
Dopamine D2 receptor

>  <assay_chembl_id>  (314) 
CHEMBL1936809

>  <standard_relation>  (314) 
=

>  <assay_description>  (314) 
Inhibition of dopamine D2 receptor

>  <published_relation>  (314) 
=

>  <standard_value>  (314) 
1500

>  <qudt_units>  (314) 
http://www.openphacts.org/units/Nanomolar

>  <target_tax_id>  (314) 
9606

>  <bao_label>  (314) 
single protein format

>  <published_units>  (314) 
uM

>  <pchembl_value>  (314) 
5.82

>  <published_type>  (314) 
IC50

>  <activity_comment>  (314) 
None

$$$$

     RDKit          

 35 38  0  0  0  0  0  0  0  0999 V2000
    0.0000    0.0000    0.0000 O   0  0  0  0  0  0  0  0  0  0  0  0
    0.0000    0.0000    0.0000 C   0  0  0  0  0  0  0  0  0  0  0  0
    0.0000    0.0000    0.0000 C   0  0  0  0  0  0  0  0  0  0  0  0
    0.0000    0.0000    0.0000 N   0  0  0  0  0  0  0  0  0  0  0  0
    0.0000    0.0000    0.0000 C   0  0  0  0  0  0  0  0  0  0  0  0
    0.0000    0.0000    0.0000 C   0  0  0  0  0  0  0  0  0  0  0  0
    0.0000    0.0000    0.0000 C   0  0  0  0  0  0  0  0  0  0  0  0
    0.0000    0.0000    0.0000 C   0  0  0  0  0  0  0  0  0  0  0  0
    0.0000    0.0000    0.0000 C   0  0  0  0  0  0  0  0  0  0  0  0
    0.0000    0.0000    0.0000 C   0  0  0  0  0  0  0  0  0  0  0  0
    0.0000    0.0000    0.0000 C   0  0  0  0  0  0  0  0  0  0  0  0
    0.0000    0.0000    0.0000 C   0  0  0  0  0  0  0  0  0  0  0  0
    0.0000    0.0000    0.0000 N   0  0  0  0  0  0  0  0  0  0  0  0
    0.0000    0.0000    0.0000 C   0  0  0  0  0  0  0  0  0  0  0  0
    0.0000    0.0000    0.0000 C   0  0  0  0  0  0  0  0  0  0  0  0
    0.0000    0.0000    0.0000 C   0  0  0  0  0  0  0  0  0  0  0  0
    0.0000    0.0000    0.0000 C   0  0  0  0  0  0  0  0  0  0  0  0
    0.0000    0.0000    0.0000 Cl  0  0  0  0  0  0  0  0  0  0  0  0
    0.0000    0.0000    0.0000 C   0  0  0  0  0  0  0  0  0  0  0  0
    0.0000    0.0000    0.0000 C   0  0  0  0  0  0  0  0  0  0  0  0
    0.0000    0.0000    0.0000 C   0  0  0  0  0  0  0  0  0  0  0  0
    0.0000    0.0000    0.0000 C   0  0  0  0  0  0  0  0  0  0  0  0
    0.0000    0.0000    0.0000 Cl  0  0  0  0  0  0  0  0  0  0  0  0
    0.0000    0.0000    0.0000 C   0  0  0  0  0  0  0  0  0  0  0  0
    0.0000    0.0000    0.0000 C   0  0  0  0  0  0  0  0  0  0  0  0
    0.0000    0.0000    0.0000 C   0  0  0  0  0  0  0  0  0  0  0  0
    0.0000    0.0000    0.0000 C   0  0  0  0  0  0  0  0  0  0  0  0
    0.0000    0.0000    0.0000 C   0  0  0  0  0  0  0  0  0  0  0  0
    0.0000    0.0000    0.0000 O   0  0  0  0  0  0  0  0  0  0  0  0
    0.0000    0.0000    0.0000 C   0  0  0  0  0  0  0  0  0  0  0  0
    0.0000    0.0000    0.0000 N   0  0  0  0  0  0  0  0  0  0  0  0
    0.0000    0.0000    0.0000 C   0  0  0  0  0  0  0  0  0  0  0  0
    0.0000    0.0000    0.0000 O   0  0  0  0  0  0  0  0  0  0  0  0
    0.0000    0.0000    0.0000 S   0  0  0  0  0  0  0  0  0  0  0  0
    0.0000    0.0000    0.0000 C   0  0  0  0  0  0  0  0  0  0  0  0
  1  2  1  0
  2  3  1  0
  3  4  1  0
  4  5  1  0
  5  6  1  0
  6  7  1  0
  7  8  2  0
  8  9  1  0
  9 10  2  0
 10 11  1  0
 11 12  1  0
 12 13  1  0
 13 14  1  0
 14 15  1  0
 15 16  1  0
 16 17  2  0
 17 18  1  0
 17 19  1  0
 19 20  2  0
 20 21  1  0
 21 22  2  0
 22 23  1  0
 11 24  2  0
  2 25  1  0
 25 26  2  0
 26 27  1  0
 27 28  2  0
 28 29  1  0
 28 30  1  0
 30 31  1  0
 31 32  1  0
 32 33  2  0
 32 34  1  0
 34 35  1  0
 24  7  1  0
 22 16  1  0
 35 25  1  0
 35 30  2  0
M  END
>  <pIC50>  (315) 
6.6

>  <ChEMBL_ID>  (315) 
CHEMBL1947157

>  <document_journal>  (315) 
Bioorg. Med. Chem. Lett.

>  <bao_endpoint>  (315) 
BAO_0000190

>  <potential_duplicate>  (315) 
False

>  <uo_units>  (315) 
UO_0000065

>  <canonical_smiles>  (315) 
O[C@@H](CNCCc1cccc(CNCCc2c(Cl)cccc2Cl)c1)c3ccc(O)c4NC(=O)Sc34

>  <parent_molecule_chembl_id>  (315) 
CHEMBL1947157

>  <assay_type>  (315) 
B

>  <src_id>  (315) 
1

>  <ligand_efficiency>  (315) 
{u'le': u'0.26', u'bei': u'12.39', u'sei': u'5.55', u'lle': u'1.24'}

>  <standard_flag>  (315) 
True

>  <molecule_chembl_id>  (315) 
CHEMBL1947157

>  <target_organism>  (315) 
Homo sapiens

>  <standard_units>  (315) 
nM

>  <record_id>  (315) 
1576620

>  <document_chembl_id>  (315) 
CHEMBL1944599

>  <bao_format>  (315) 
BAO_0000357

>  <data_validity_description>  (315) 
None

>  <activity_id>  (315) 
8023024

>  <standard_type>  (315) 
IC50

>  <target_chembl_id>  (315) 
CHEMBL217

>  <data_validity_comment>  (315) 
None

>  <published_value>  (315) 
6.6

>  <document_year>  (315) 
2012

>  <target_pref_name>  (315) 
Dopamine D2 receptor

>  <assay_chembl_id>  (315) 
CHEMBL1947794

>  <standard_relation>  (315) 
=

>  <assay_description>  (315) 
Displacement of radiolabeled spiperone from dopamine D2 receptor

>  <published_relation>  (315) 
=

>  <standard_value>  (315) 
251.19

>  <qudt_units>  (315) 
http://www.openphacts.org/units/Nanomolar

>  <target_tax_id>  (315) 
9606

>  <bao_label>  (315) 
single protein format

>  <published_units>  (315) 
None

>  <pchembl_value>  (315) 
6.6

>  <published_type>  (315) 
pIC50

>  <activity_comment>  (315) 
None

$$$$

     RDKit          

 35 38  0  0  0  0  0  0  0  0999 V2000
    0.0000    0.0000    0.0000 O   0  0  0  0  0  0  0  0  0  0  0  0
    0.0000    0.0000    0.0000 C   0  0  0  0  0  0  0  0  0  0  0  0
    0.0000    0.0000    0.0000 C   0  0  0  0  0  0  0  0  0  0  0  0
    0.0000    0.0000    0.0000 N   0  0  0  0  0  0  0  0  0  0  0  0
    0.0000    0.0000    0.0000 C   0  0  0  0  0  0  0  0  0  0  0  0
    0.0000    0.0000    0.0000 C   0  0  0  0  0  0  0  0  0  0  0  0
    0.0000    0.0000    0.0000 C   0  0  0  0  0  0  0  0  0  0  0  0
    0.0000    0.0000    0.0000 C   0  0  0  0  0  0  0  0  0  0  0  0
    0.0000    0.0000    0.0000 C   0  0  0  0  0  0  0  0  0  0  0  0
    0.0000    0.0000    0.0000 C   0  0  0  0  0  0  0  0  0  0  0  0
    0.0000    0.0000    0.0000 C   0  0  0  0  0  0  0  0  0  0  0  0
    0.0000    0.0000    0.0000 N   0  0  0  0  0  0  0  0  0  0  0  0
    0.0000    0.0000    0.0000 C   0  0  0  0  0  0  0  0  0  0  0  0
    0.0000    0.0000    0.0000 C   0  0  0  0  0  0  0  0  0  0  0  0
    0.0000    0.0000    0.0000 C   0  0  0  0  0  0  0  0  0  0  0  0
    0.0000    0.0000    0.0000 C   0  0  0  0  0  0  0  0  0  0  0  0
    0.0000    0.0000    0.0000 Cl  0  0  0  0  0  0  0  0  0  0  0  0
    0.0000    0.0000    0.0000 C   0  0  0  0  0  0  0  0  0  0  0  0
    0.0000    0.0000    0.0000 C   0  0  0  0  0  0  0  0  0  0  0  0
    0.0000    0.0000    0.0000 C   0  0  0  0  0  0  0  0  0  0  0  0
    0.0000    0.0000    0.0000 C   0  0  0  0  0  0  0  0  0  0  0  0
    0.0000    0.0000    0.0000 Cl  0  0  0  0  0  0  0  0  0  0  0  0
    0.0000    0.0000    0.0000 C   0  0  0  0  0  0  0  0  0  0  0  0
    0.0000    0.0000    0.0000 C   0  0  0  0  0  0  0  0  0  0  0  0
    0.0000    0.0000    0.0000 C   0  0  0  0  0  0  0  0  0  0  0  0
    0.0000    0.0000    0.0000 C   0  0  0  0  0  0  0  0  0  0  0  0
    0.0000    0.0000    0.0000 C   0  0  0  0  0  0  0  0  0  0  0  0
    0.0000    0.0000    0.0000 C   0  0  0  0  0  0  0  0  0  0  0  0
    0.0000    0.0000    0.0000 O   0  0  0  0  0  0  0  0  0  0  0  0
    0.0000    0.0000    0.0000 C   0  0  0  0  0  0  0  0  0  0  0  0
    0.0000    0.0000    0.0000 N   0  0  0  0  0  0  0  0  0  0  0  0
    0.0000    0.0000    0.0000 C   0  0  0  0  0  0  0  0  0  0  0  0
    0.0000    0.0000    0.0000 O   0  0  0  0  0  0  0  0  0  0  0  0
    0.0000    0.0000    0.0000 S   0  0  0  0  0  0  0  0  0  0  0  0
    0.0000    0.0000    0.0000 C   0  0  0  0  0  0  0  0  0  0  0  0
  1  2  1  0
  2  3  1  0
  3  4  1  0
  4  5  1  0
  5  6  1  0
  6  7  1  0
  7  8  2  0
  8  9  1  0
  9 10  2  0
 10 11  1  0
 11 12  1  0
 12 13  1  0
 13 14  1  0
 14 15  1  0
 15 16  2  0
 16 17  1  0
 16 18  1  0
 18 19  2  0
 19 20  1  0
 20 21  2  0
 21 22  1  0
 10 23  1  0
 23 24  2  0
  2 25  1  0
 25 26  2  0
 26 27  1  0
 27 28  2  0
 28 29  1  0
 28 30  1  0
 30 31  1  0
 31 32  1  0
 32 33  2  0
 32 34  1  0
 34 35  1  0
 24  7  1  0
 21 15  1  0
 35 25  1  0
 35 30  2  0
M  END
>  <pIC50>  (316) 
6.0

>  <ChEMBL_ID>  (316) 
CHEMBL1944689

>  <document_journal>  (316) 
Bioorg. Med. Chem. Lett.

>  <bao_endpoint>  (316) 
BAO_0000190

>  <potential_duplicate>  (316) 
False

>  <uo_units>  (316) 
UO_0000065

>  <canonical_smiles>  (316) 
O[C@@H](CNCCc1ccc(CNCCc2c(Cl)cccc2Cl)cc1)c3ccc(O)c4NC(=O)Sc34

>  <parent_molecule_chembl_id>  (316) 
CHEMBL1944689

>  <assay_type>  (316) 
B

>  <src_id>  (316) 
1

>  <ligand_efficiency>  (316) 
{u'le': u'0.23', u'bei': u'11.27', u'sei': u'5.05', u'lle': u'0.64'}

>  <standard_flag>  (316) 
True

>  <molecule_chembl_id>  (316) 
CHEMBL1944689

>  <target_organism>  (316) 
Homo sapiens

>  <standard_units>  (316) 
nM

>  <record_id>  (316) 
1573530

>  <document_chembl_id>  (316) 
CHEMBL1944599

>  <bao_format>  (316) 
BAO_0000357

>  <data_validity_description>  (316) 
None

>  <activity_id>  (316) 
8023025

>  <standard_type>  (316) 
IC50

>  <target_chembl_id>  (316) 
CHEMBL217

>  <data_validity_comment>  (316) 
None

>  <published_value>  (316) 
6

>  <document_year>  (316) 
2012

>  <target_pref_name>  (316) 
Dopamine D2 receptor

>  <assay_chembl_id>  (316) 
CHEMBL1947794

>  <standard_relation>  (316) 
=

>  <assay_description>  (316) 
Displacement of radiolabeled spiperone from dopamine D2 receptor

>  <published_relation>  (316) 
=

>  <standard_value>  (316) 
1000

>  <qudt_units>  (316) 
http://www.openphacts.org/units/Nanomolar

>  <target_tax_id>  (316) 
9606

>  <bao_label>  (316) 
single protein format

>  <published_units>  (316) 
None

>  <pchembl_value>  (316) 
6

>  <published_type>  (316) 
pIC50

>  <activity_comment>  (316) 
None

$$$$

     RDKit          

 34 37  0  0  0  0  0  0  0  0999 V2000
    0.0000    0.0000    0.0000 O   0  0  0  0  0  0  0  0  0  0  0  0
    0.0000    0.0000    0.0000 C   0  0  0  0  0  0  0  0  0  0  0  0
    0.0000    0.0000    0.0000 C   0  0  0  0  0  0  0  0  0  0  0  0
    0.0000    0.0000    0.0000 N   0  0  0  0  0  0  0  0  0  0  0  0
    0.0000    0.0000    0.0000 C   0  0  0  0  0  0  0  0  0  0  0  0
    0.0000    0.0000    0.0000 C   0  0  0  0  0  0  0  0  0  0  0  0
    0.0000    0.0000    0.0000 C   0  0  0  0  0  0  0  0  0  0  0  0
    0.0000    0.0000    0.0000 C   0  0  0  0  0  0  0  0  0  0  0  0
    0.0000    0.0000    0.0000 C   0  0  0  0  0  0  0  0  0  0  0  0
    0.0000    0.0000    0.0000 C   0  0  0  0  0  0  0  0  0  0  0  0
    0.0000    0.0000    0.0000 C   0  0  0  0  0  0  0  0  0  0  0  0
    0.0000    0.0000    0.0000 C   0  0  0  0  0  0  0  0  0  0  0  0
    0.0000    0.0000    0.0000 N   0  0  0  0  0  0  0  0  0  0  0  0
    0.0000    0.0000    0.0000 C   0  0  0  0  0  0  0  0  0  0  0  0
    0.0000    0.0000    0.0000 C   0  0  0  0  0  0  0  0  0  0  0  0
    0.0000    0.0000    0.0000 C   0  0  0  0  0  0  0  0  0  0  0  0
    0.0000    0.0000    0.0000 C   0  0  0  0  0  0  0  0  0  0  0  0
    0.0000    0.0000    0.0000 C   0  0  0  0  0  0  0  0  0  0  0  0
    0.0000    0.0000    0.0000 C   0  0  0  0  0  0  0  0  0  0  0  0
    0.0000    0.0000    0.0000 C   0  0  0  0  0  0  0  0  0  0  0  0
    0.0000    0.0000    0.0000 C   0  0  0  0  0  0  0  0  0  0  0  0
    0.0000    0.0000    0.0000 Cl  0  0  0  0  0  0  0  0  0  0  0  0
    0.0000    0.0000    0.0000 C   0  0  0  0  0  0  0  0  0  0  0  0
    0.0000    0.0000    0.0000 C   0  0  0  0  0  0  0  0  0  0  0  0
    0.0000    0.0000    0.0000 C   0  0  0  0  0  0  0  0  0  0  0  0
    0.0000    0.0000    0.0000 C   0  0  0  0  0  0  0  0  0  0  0  0
    0.0000    0.0000    0.0000 C   0  0  0  0  0  0  0  0  0  0  0  0
    0.0000    0.0000    0.0000 O   0  0  0  0  0  0  0  0  0  0  0  0
    0.0000    0.0000    0.0000 C   0  0  0  0  0  0  0  0  0  0  0  0
    0.0000    0.0000    0.0000 N   0  0  0  0  0  0  0  0  0  0  0  0
    0.0000    0.0000    0.0000 C   0  0  0  0  0  0  0  0  0  0  0  0
    0.0000    0.0000    0.0000 O   0  0  0  0  0  0  0  0  0  0  0  0
    0.0000    0.0000    0.0000 S   0  0  0  0  0  0  0  0  0  0  0  0
    0.0000    0.0000    0.0000 C   0  0  0  0  0  0  0  0  0  0  0  0
  1  2  1  0
  2  3  1  0
  3  4  1  0
  4  5  1  0
  5  6  1  0
  6  7  1  0
  7  8  2  0
  8  9  1  0
  9 10  2  0
 10 11  1  0
 11 12  1  0
 12 13  1  0
 13 14  1  0
 14 15  1  0
 15 16  1  0
 16 17  2  0
 17 18  1  0
 18 19  2  0
 19 20  1  0
 20 21  2  0
 21 22  1  0
 11 23  2  0
  2 24  1  0
 24 25  2  0
 25 26  1  0
 26 27  2  0
 27 28  1  0
 27 29  1  0
 29 30  1  0
 30 31  1  0
 31 32  2  0
 31 33  1  0
 33 34  1  0
 23  7  1  0
 21 16  1  0
 34 24  1  0
 34 29  2  0
M  END
>  <pIC50>  (317) 
6.2

>  <ChEMBL_ID>  (317) 
CHEMBL1944690

>  <document_journal>  (317) 
Bioorg. Med. Chem. Lett.

>  <bao_endpoint>  (317) 
BAO_0000190

>  <potential_duplicate>  (317) 
False

>  <uo_units>  (317) 
UO_0000065

>  <canonical_smiles>  (317) 
O[C@@H](CNCCc1cccc(CNCCc2ccccc2Cl)c1)c3ccc(O)c4NC(=O)Sc34

>  <parent_molecule_chembl_id>  (317) 
CHEMBL1944690

>  <assay_type>  (317) 
B

>  <src_id>  (317) 
1

>  <ligand_efficiency>  (317) 
{u'le': u'0.25', u'bei': u'12.45', u'sei': u'5.21', u'lle': u'1.51'}

>  <standard_flag>  (317) 
True

>  <molecule_chembl_id>  (317) 
CHEMBL1944690

>  <target_organism>  (317) 
Homo sapiens

>  <standard_units>  (317) 
nM

>  <record_id>  (317) 
1573531

>  <document_chembl_id>  (317) 
CHEMBL1944599

>  <bao_format>  (317) 
BAO_0000357

>  <data_validity_description>  (317) 
None

>  <activity_id>  (317) 
8023026

>  <standard_type>  (317) 
IC50

>  <target_chembl_id>  (317) 
CHEMBL217

>  <data_validity_comment>  (317) 
None

>  <published_value>  (317) 
6.2

>  <document_year>  (317) 
2012

>  <target_pref_name>  (317) 
Dopamine D2 receptor

>  <assay_chembl_id>  (317) 
CHEMBL1947794

>  <standard_relation>  (317) 
=

>  <assay_description>  (317) 
Displacement of radiolabeled spiperone from dopamine D2 receptor

>  <published_relation>  (317) 
=

>  <standard_value>  (317) 
630.96

>  <qudt_units>  (317) 
http://www.openphacts.org/units/Nanomolar

>  <target_tax_id>  (317) 
9606

>  <bao_label>  (317) 
single protein format

>  <published_units>  (317) 
None

>  <pchembl_value>  (317) 
6.2

>  <published_type>  (317) 
pIC50

>  <activity_comment>  (317) 
None

$$$$

     RDKit          

 34 37  0  0  0  0  0  0  0  0999 V2000
    0.0000    0.0000    0.0000 O   0  0  0  0  0  0  0  0  0  0  0  0
    0.0000    0.0000    0.0000 C   0  0  0  0  0  0  0  0  0  0  0  0
    0.0000    0.0000    0.0000 C   0  0  0  0  0  0  0  0  0  0  0  0
    0.0000    0.0000    0.0000 N   0  0  0  0  0  0  0  0  0  0  0  0
    0.0000    0.0000    0.0000 C   0  0  0  0  0  0  0  0  0  0  0  0
    0.0000    0.0000    0.0000 C   0  0  0  0  0  0  0  0  0  0  0  0
    0.0000    0.0000    0.0000 C   0  0  0  0  0  0  0  0  0  0  0  0
    0.0000    0.0000    0.0000 C   0  0  0  0  0  0  0  0  0  0  0  0
    0.0000    0.0000    0.0000 C   0  0  0  0  0  0  0  0  0  0  0  0
    0.0000    0.0000    0.0000 C   0  0  0  0  0  0  0  0  0  0  0  0
    0.0000    0.0000    0.0000 C   0  0  0  0  0  0  0  0  0  0  0  0
    0.0000    0.0000    0.0000 C   0  0  0  0  0  0  0  0  0  0  0  0
    0.0000    0.0000    0.0000 N   0  0  0  0  0  0  0  0  0  0  0  0
    0.0000    0.0000    0.0000 C   0  0  0  0  0  0  0  0  0  0  0  0
    0.0000    0.0000    0.0000 C   0  0  0  0  0  0  0  0  0  0  0  0
    0.0000    0.0000    0.0000 C   0  0  0  0  0  0  0  0  0  0  0  0
    0.0000    0.0000    0.0000 C   0  0  0  0  0  0  0  0  0  0  0  0
    0.0000    0.0000    0.0000 C   0  0  0  0  0  0  0  0  0  0  0  0
    0.0000    0.0000    0.0000 C   0  0  0  0  0  0  0  0  0  0  0  0
    0.0000    0.0000    0.0000 C   0  0  0  0  0  0  0  0  0  0  0  0
    0.0000    0.0000    0.0000 C   0  0  0  0  0  0  0  0  0  0  0  0
    0.0000    0.0000    0.0000 F   0  0  0  0  0  0  0  0  0  0  0  0
    0.0000    0.0000    0.0000 C   0  0  0  0  0  0  0  0  0  0  0  0
    0.0000    0.0000    0.0000 C   0  0  0  0  0  0  0  0  0  0  0  0
    0.0000    0.0000    0.0000 C   0  0  0  0  0  0  0  0  0  0  0  0
    0.0000    0.0000    0.0000 C   0  0  0  0  0  0  0  0  0  0  0  0
    0.0000    0.0000    0.0000 C   0  0  0  0  0  0  0  0  0  0  0  0
    0.0000    0.0000    0.0000 O   0  0  0  0  0  0  0  0  0  0  0  0
    0.0000    0.0000    0.0000 C   0  0  0  0  0  0  0  0  0  0  0  0
    0.0000    0.0000    0.0000 N   0  0  0  0  0  0  0  0  0  0  0  0
    0.0000    0.0000    0.0000 C   0  0  0  0  0  0  0  0  0  0  0  0
    0.0000    0.0000    0.0000 O   0  0  0  0  0  0  0  0  0  0  0  0
    0.0000    0.0000    0.0000 S   0  0  0  0  0  0  0  0  0  0  0  0
    0.0000    0.0000    0.0000 C   0  0  0  0  0  0  0  0  0  0  0  0
  1  2  1  0
  2  3  1  0
  3  4  1  0
  4  5  1  0
  5  6  1  0
  6  7  1  0
  7  8  2  0
  8  9  1  0
  9 10  2  0
 10 11  1  0
 11 12  1  0
 12 13  1  0
 13 14  1  0
 14 15  1  0
 15 16  1  0
 16 17  2  0
 17 18  1  0
 18 19  2  0
 19 20  1  0
 20 21  2  0
 21 22  1  0
 11 23  2  0
  2 24  1  0
 24 25  2  0
 25 26  1  0
 26 27  2  0
 27 28  1  0
 27 29  1  0
 29 30  1  0
 30 31  1  0
 31 32  2  0
 31 33  1  0
 33 34  1  0
 23  7  1  0
 21 16  1  0
 34 24  1  0
 34 29  2  0
M  END
>  <pIC50>  (318) 
6.4

>  <ChEMBL_ID>  (318) 
CHEMBL1944691

>  <document_journal>  (318) 
Bioorg. Med. Chem. Lett.

>  <bao_endpoint>  (318) 
BAO_0000190

>  <potential_duplicate>  (318) 
False

>  <uo_units>  (318) 
UO_0000065

>  <canonical_smiles>  (318) 
O[C@@H](CNCCc1cccc(CNCCc2ccccc2F)c1)c3ccc(O)c4NC(=O)Sc34

>  <parent_molecule_chembl_id>  (318) 
CHEMBL1944691

>  <assay_type>  (318) 
B

>  <src_id>  (318) 
1

>  <ligand_efficiency>  (318) 
{u'le': u'0.26', u'bei': u'13.29', u'sei': u'5.38', u'lle': u'2.16'}

>  <standard_flag>  (318) 
True

>  <molecule_chembl_id>  (318) 
CHEMBL1944691

>  <target_organism>  (318) 
Homo sapiens

>  <standard_units>  (318) 
nM

>  <record_id>  (318) 
1573532

>  <document_chembl_id>  (318) 
CHEMBL1944599

>  <bao_format>  (318) 
BAO_0000357

>  <data_validity_description>  (318) 
None

>  <activity_id>  (318) 
8023027

>  <standard_type>  (318) 
IC50

>  <target_chembl_id>  (318) 
CHEMBL217

>  <data_validity_comment>  (318) 
None

>  <published_value>  (318) 
6.4

>  <document_year>  (318) 
2012

>  <target_pref_name>  (318) 
Dopamine D2 receptor

>  <assay_chembl_id>  (318) 
CHEMBL1947794

>  <standard_relation>  (318) 
=

>  <assay_description>  (318) 
Displacement of radiolabeled spiperone from dopamine D2 receptor

>  <published_relation>  (318) 
=

>  <standard_value>  (318) 
398.11

>  <qudt_units>  (318) 
http://www.openphacts.org/units/Nanomolar

>  <target_tax_id>  (318) 
9606

>  <bao_label>  (318) 
single protein format

>  <published_units>  (318) 
None

>  <pchembl_value>  (318) 
6.4

>  <published_type>  (318) 
pIC50

>  <activity_comment>  (318) 
None

$$$$

     RDKit          

 34 37  0  0  0  0  0  0  0  0999 V2000
    0.0000    0.0000    0.0000 O   0  0  0  0  0  0  0  0  0  0  0  0
    0.0000    0.0000    0.0000 C   0  0  0  0  0  0  0  0  0  0  0  0
    0.0000    0.0000    0.0000 C   0  0  0  0  0  0  0  0  0  0  0  0
    0.0000    0.0000    0.0000 N   0  0  0  0  0  0  0  0  0  0  0  0
    0.0000    0.0000    0.0000 C   0  0  0  0  0  0  0  0  0  0  0  0
    0.0000    0.0000    0.0000 C   0  0  0  0  0  0  0  0  0  0  0  0
    0.0000    0.0000    0.0000 C   0  0  0  0  0  0  0  0  0  0  0  0
    0.0000    0.0000    0.0000 C   0  0  0  0  0  0  0  0  0  0  0  0
    0.0000    0.0000    0.0000 C   0  0  0  0  0  0  0  0  0  0  0  0
    0.0000    0.0000    0.0000 C   0  0  0  0  0  0  0  0  0  0  0  0
    0.0000    0.0000    0.0000 C   0  0  0  0  0  0  0  0  0  0  0  0
    0.0000    0.0000    0.0000 N   0  0  0  0  0  0  0  0  0  0  0  0
    0.0000    0.0000    0.0000 C   0  0  0  0  0  0  0  0  0  0  0  0
    0.0000    0.0000    0.0000 C   0  0  0  0  0  0  0  0  0  0  0  0
    0.0000    0.0000    0.0000 C   0  0  0  0  0  0  0  0  0  0  0  0
    0.0000    0.0000    0.0000 C   0  0  0  0  0  0  0  0  0  0  0  0
    0.0000    0.0000    0.0000 C   0  0  0  0  0  0  0  0  0  0  0  0
    0.0000    0.0000    0.0000 C   0  0  0  0  0  0  0  0  0  0  0  0
    0.0000    0.0000    0.0000 C   0  0  0  0  0  0  0  0  0  0  0  0
    0.0000    0.0000    0.0000 C   0  0  0  0  0  0  0  0  0  0  0  0
    0.0000    0.0000    0.0000 F   0  0  0  0  0  0  0  0  0  0  0  0
    0.0000    0.0000    0.0000 C   0  0  0  0  0  0  0  0  0  0  0  0
    0.0000    0.0000    0.0000 C   0  0  0  0  0  0  0  0  0  0  0  0
    0.0000    0.0000    0.0000 C   0  0  0  0  0  0  0  0  0  0  0  0
    0.0000    0.0000    0.0000 C   0  0  0  0  0  0  0  0  0  0  0  0
    0.0000    0.0000    0.0000 C   0  0  0  0  0  0  0  0  0  0  0  0
    0.0000    0.0000    0.0000 C   0  0  0  0  0  0  0  0  0  0  0  0
    0.0000    0.0000    0.0000 O   0  0  0  0  0  0  0  0  0  0  0  0
    0.0000    0.0000    0.0000 C   0  0  0  0  0  0  0  0  0  0  0  0
    0.0000    0.0000    0.0000 N   0  0  0  0  0  0  0  0  0  0  0  0
    0.0000    0.0000    0.0000 C   0  0  0  0  0  0  0  0  0  0  0  0
    0.0000    0.0000    0.0000 O   0  0  0  0  0  0  0  0  0  0  0  0
    0.0000    0.0000    0.0000 S   0  0  0  0  0  0  0  0  0  0  0  0
    0.0000    0.0000    0.0000 C   0  0  0  0  0  0  0  0  0  0  0  0
  1  2  1  0
  2  3  1  0
  3  4  1  0
  4  5  1  0
  5  6  1  0
  6  7  1  0
  7  8  2  0
  8  9  1  0
  9 10  2  0
 10 11  1  0
 11 12  1  0
 12 13  1  0
 13 14  1  0
 14 15  1  0
 15 16  2  0
 16 17  1  0
 17 18  2  0
 18 19  1  0
 19 20  2  0
 20 21  1  0
 10 22  1  0
 22 23  2  0
  2 24  1  0
 24 25  2  0
 25 26  1  0
 26 27  2  0
 27 28  1  0
 27 29  1  0
 29 30  1  0
 30 31  1  0
 31 32  2  0
 31 33  1  0
 33 34  1  0
 23  7  1  0
 20 15  1  0
 34 24  1  0
 34 29  2  0
M  END
>  <pIC50>  (319) 
5.7

>  <ChEMBL_ID>  (319) 
CHEMBL1944692

>  <document_journal>  (319) 
Bioorg. Med. Chem. Lett.

>  <bao_endpoint>  (319) 
BAO_0000190

>  <potential_duplicate>  (319) 
False

>  <uo_units>  (319) 
UO_0000065

>  <canonical_smiles>  (319) 
O[C@@H](CNCCc1ccc(CNCCc2ccccc2F)cc1)c3ccc(O)c4NC(=O)Sc34

>  <parent_molecule_chembl_id>  (319) 
CHEMBL1944692

>  <assay_type>  (319) 
B

>  <src_id>  (319) 
1

>  <ligand_efficiency>  (319) 
{u'le': u'0.23', u'bei': u'11.84', u'sei': u'4.79', u'lle': u'1.46'}

>  <standard_flag>  (319) 
True

>  <molecule_chembl_id>  (319) 
CHEMBL1944692

>  <target_organism>  (319) 
Homo sapiens

>  <standard_units>  (319) 
nM

>  <record_id>  (319) 
1573533

>  <document_chembl_id>  (319) 
CHEMBL1944599

>  <bao_format>  (319) 
BAO_0000357

>  <data_validity_description>  (319) 
None

>  <activity_id>  (319) 
8023028

>  <standard_type>  (319) 
IC50

>  <target_chembl_id>  (319) 
CHEMBL217

>  <data_validity_comment>  (319) 
None

>  <published_value>  (319) 
5.7

>  <document_year>  (319) 
2012

>  <target_pref_name>  (319) 
Dopamine D2 receptor

>  <assay_chembl_id>  (319) 
CHEMBL1947794

>  <standard_relation>  (319) 
=

>  <assay_description>  (319) 
Displacement of radiolabeled spiperone from dopamine D2 receptor

>  <published_relation>  (319) 
=

>  <standard_value>  (319) 
1995.26

>  <qudt_units>  (319) 
http://www.openphacts.org/units/Nanomolar

>  <target_tax_id>  (319) 
9606

>  <bao_label>  (319) 
single protein format

>  <published_units>  (319) 
None

>  <pchembl_value>  (319) 
5.7

>  <published_type>  (319) 
pIC50

>  <activity_comment>  (319) 
None

$$$$

     RDKit          

 35 38  0  0  0  0  0  0  0  0999 V2000
    0.0000    0.0000    0.0000 C   0  0  0  0  0  0  0  0  0  0  0  0
    0.0000    0.0000    0.0000 O   0  0  0  0  0  0  0  0  0  0  0  0
    0.0000    0.0000    0.0000 C   0  0  0  0  0  0  0  0  0  0  0  0
    0.0000    0.0000    0.0000 C   0  0  0  0  0  0  0  0  0  0  0  0
    0.0000    0.0000    0.0000 C   0  0  0  0  0  0  0  0  0  0  0  0
    0.0000    0.0000    0.0000 C   0  0  0  0  0  0  0  0  0  0  0  0
    0.0000    0.0000    0.0000 C   0  0  0  0  0  0  0  0  0  0  0  0
    0.0000    0.0000    0.0000 C   0  0  0  0  0  0  0  0  0  0  0  0
    0.0000    0.0000    0.0000 C   0  0  0  0  0  0  0  0  0  0  0  0
    0.0000    0.0000    0.0000 C   0  0  0  0  0  0  0  0  0  0  0  0
    0.0000    0.0000    0.0000 N   0  0  0  0  0  0  0  0  0  0  0  0
    0.0000    0.0000    0.0000 C   0  0  0  0  0  0  0  0  0  0  0  0
    0.0000    0.0000    0.0000 C   0  0  0  0  0  0  0  0  0  0  0  0
    0.0000    0.0000    0.0000 C   0  0  0  0  0  0  0  0  0  0  0  0
    0.0000    0.0000    0.0000 C   0  0  0  0  0  0  0  0  0  0  0  0
    0.0000    0.0000    0.0000 C   0  0  0  0  0  0  0  0  0  0  0  0
    0.0000    0.0000    0.0000 C   0  0  0  0  0  0  0  0  0  0  0  0
    0.0000    0.0000    0.0000 C   0  0  0  0  0  0  0  0  0  0  0  0
    0.0000    0.0000    0.0000 N   0  0  0  0  0  0  0  0  0  0  0  0
    0.0000    0.0000    0.0000 C   0  0  0  0  0  0  0  0  0  0  0  0
    0.0000    0.0000    0.0000 C   0  0  0  0  0  0  0  0  0  0  0  0
    0.0000    0.0000    0.0000 O   0  0  0  0  0  0  0  0  0  0  0  0
    0.0000    0.0000    0.0000 C   0  0  0  0  0  0  0  0  0  0  0  0
    0.0000    0.0000    0.0000 C   0  0  0  0  0  0  0  0  0  0  0  0
    0.0000    0.0000    0.0000 C   0  0  0  0  0  0  0  0  0  0  0  0
    0.0000    0.0000    0.0000 C   0  0  0  0  0  0  0  0  0  0  0  0
    0.0000    0.0000    0.0000 O   0  0  0  0  0  0  0  0  0  0  0  0
    0.0000    0.0000    0.0000 C   0  0  0  0  0  0  0  0  0  0  0  0
    0.0000    0.0000    0.0000 N   0  0  0  0  0  0  0  0  0  0  0  0
    0.0000    0.0000    0.0000 C   0  0  0  0  0  0  0  0  0  0  0  0
    0.0000    0.0000    0.0000 O   0  0  0  0  0  0  0  0  0  0  0  0
    0.0000    0.0000    0.0000 S   0  0  0  0  0  0  0  0  0  0  0  0
    0.0000    0.0000    0.0000 C   0  0  0  0  0  0  0  0  0  0  0  0
    0.0000    0.0000    0.0000 C   0  0  0  0  0  0  0  0  0  0  0  0
    0.0000    0.0000    0.0000 C   0  0  0  0  0  0  0  0  0  0  0  0
  1  2  1  0
  2  3  1  0
  3  4  2  0
  4  5  1  0
  5  6  2  0
  6  7  1  0
  7  8  2  0
  8  9  1  0
  9 10  1  0
 10 11  1  0
 11 12  1  0
 12 13  1  0
 13 14  2  0
 14 15  1  0
 15 16  2  0
 16 17  1  0
 17 18  1  0
 18 19  1  0
 19 20  1  0
 20 21  1  0
 21 22  1  0
 21 23  1  0
 23 24  2  0
 24 25  1  0
 25 26  2  0
 26 27  1  0
 26 28  1  0
 28 29  1  0
 29 30  1  0
 30 31  2  0
 30 32  1  0
 32 33  1  0
 16 34  1  0
 34 35  2  0
  8  3  1  0
 35 13  1  0
 33 23  1  0
 33 28  2  0
M  END
>  <pIC50>  (320) 
6.2

>  <ChEMBL_ID>  (320) 
CHEMBL1944694

>  <document_journal>  (320) 
Bioorg. Med. Chem. Lett.

>  <bao_endpoint>  (320) 
BAO_0000190

>  <potential_duplicate>  (320) 
False

>  <uo_units>  (320) 
UO_0000065

>  <canonical_smiles>  (320) 
COc1ccccc1CCNCc2ccc(CCNC[C@H](O)c3ccc(O)c4NC(=O)Sc34)cc2

>  <parent_molecule_chembl_id>  (320) 
CHEMBL1944694

>  <assay_type>  (320) 
B

>  <src_id>  (320) 
1

>  <ligand_efficiency>  (320) 
{u'le': u'0.24', u'bei': u'12.56', u'sei': u'4.84', u'lle': u'2.19'}

>  <standard_flag>  (320) 
True

>  <molecule_chembl_id>  (320) 
CHEMBL1944694

>  <target_organism>  (320) 
Homo sapiens

>  <standard_units>  (320) 
nM

>  <record_id>  (320) 
1573535

>  <document_chembl_id>  (320) 
CHEMBL1944599

>  <bao_format>  (320) 
BAO_0000357

>  <data_validity_description>  (320) 
None

>  <activity_id>  (320) 
8023030

>  <standard_type>  (320) 
IC50

>  <target_chembl_id>  (320) 
CHEMBL217

>  <data_validity_comment>  (320) 
None

>  <published_value>  (320) 
6.2

>  <document_year>  (320) 
2012

>  <target_pref_name>  (320) 
Dopamine D2 receptor

>  <assay_chembl_id>  (320) 
CHEMBL1947794

>  <standard_relation>  (320) 
=

>  <assay_description>  (320) 
Displacement of radiolabeled spiperone from dopamine D2 receptor

>  <published_relation>  (320) 
=

>  <standard_value>  (320) 
630.96

>  <qudt_units>  (320) 
http://www.openphacts.org/units/Nanomolar

>  <target_tax_id>  (320) 
9606

>  <bao_label>  (320) 
single protein format

>  <published_units>  (320) 
None

>  <pchembl_value>  (320) 
6.2

>  <published_type>  (320) 
pIC50

>  <activity_comment>  (320) 
None

$$$$

     RDKit          

 33 36  0  0  0  0  0  0  0  0999 V2000
    0.0000    0.0000    0.0000 O   0  0  0  0  0  0  0  0  0  0  0  0
    0.0000    0.0000    0.0000 C   0  0  0  0  0  0  0  0  0  0  0  0
    0.0000    0.0000    0.0000 C   0  0  0  0  0  0  0  0  0  0  0  0
    0.0000    0.0000    0.0000 N   0  0  0  0  0  0  0  0  0  0  0  0
    0.0000    0.0000    0.0000 C   0  0  0  0  0  0  0  0  0  0  0  0
    0.0000    0.0000    0.0000 C   0  0  0  0  0  0  0  0  0  0  0  0
    0.0000    0.0000    0.0000 C   0  0  0  0  0  0  0  0  0  0  0  0
    0.0000    0.0000    0.0000 C   0  0  0  0  0  0  0  0  0  0  0  0
    0.0000    0.0000    0.0000 C   0  0  0  0  0  0  0  0  0  0  0  0
    0.0000    0.0000    0.0000 C   0  0  0  0  0  0  0  0  0  0  0  0
    0.0000    0.0000    0.0000 C   0  0  0  0  0  0  0  0  0  0  0  0
    0.0000    0.0000    0.0000 N   0  0  0  0  0  0  0  0  0  0  0  0
    0.0000    0.0000    0.0000 C   0  0  0  0  0  0  0  0  0  0  0  0
    0.0000    0.0000    0.0000 C   0  0  0  0  0  0  0  0  0  0  0  0
    0.0000    0.0000    0.0000 C   0  0  0  0  0  0  0  0  0  0  0  0
    0.0000    0.0000    0.0000 C   0  0  0  0  0  0  0  0  0  0  0  0
    0.0000    0.0000    0.0000 C   0  0  0  0  0  0  0  0  0  0  0  0
    0.0000    0.0000    0.0000 C   0  0  0  0  0  0  0  0  0  0  0  0
    0.0000    0.0000    0.0000 C   0  0  0  0  0  0  0  0  0  0  0  0
    0.0000    0.0000    0.0000 C   0  0  0  0  0  0  0  0  0  0  0  0
    0.0000    0.0000    0.0000 C   0  0  0  0  0  0  0  0  0  0  0  0
    0.0000    0.0000    0.0000 C   0  0  0  0  0  0  0  0  0  0  0  0
    0.0000    0.0000    0.0000 C   0  0  0  0  0  0  0  0  0  0  0  0
    0.0000    0.0000    0.0000 C   0  0  0  0  0  0  0  0  0  0  0  0
    0.0000    0.0000    0.0000 C   0  0  0  0  0  0  0  0  0  0  0  0
    0.0000    0.0000    0.0000 C   0  0  0  0  0  0  0  0  0  0  0  0
    0.0000    0.0000    0.0000 O   0  0  0  0  0  0  0  0  0  0  0  0
    0.0000    0.0000    0.0000 C   0  0  0  0  0  0  0  0  0  0  0  0
    0.0000    0.0000    0.0000 N   0  0  0  0  0  0  0  0  0  0  0  0
    0.0000    0.0000    0.0000 C   0  0  0  0  0  0  0  0  0  0  0  0
    0.0000    0.0000    0.0000 O   0  0  0  0  0  0  0  0  0  0  0  0
    0.0000    0.0000    0.0000 S   0  0  0  0  0  0  0  0  0  0  0  0
    0.0000    0.0000    0.0000 C   0  0  0  0  0  0  0  0  0  0  0  0
  1  2  1  0
  2  3  1  0
  3  4  1  0
  4  5  1  0
  5  6  1  0
  6  7  1  0
  7  8  2  0
  8  9  1  0
  9 10  2  0
 10 11  1  0
 11 12  1  0
 12 13  1  0
 13 14  1  0
 14 15  1  0
 15 16  2  0
 16 17  1  0
 17 18  2  0
 18 19  1  0
 19 20  2  0
 10 21  1  0
 21 22  2  0
  2 23  1  0
 23 24  2  0
 24 25  1  0
 25 26  2  0
 26 27  1  0
 26 28  1  0
 28 29  1  0
 29 30  1  0
 30 31  2  0
 30 32  1  0
 32 33  1  0
 22  7  1  0
 20 15  1  0
 33 23  1  0
 33 28  2  0
M  END
>  <pIC50>  (321) 
5.7

>  <ChEMBL_ID>  (321) 
CHEMBL1944695

>  <document_journal>  (321) 
Bioorg. Med. Chem. Lett.

>  <bao_endpoint>  (321) 
BAO_0000190

>  <potential_duplicate>  (321) 
False

>  <uo_units>  (321) 
UO_0000065

>  <canonical_smiles>  (321) 
O[C@@H](CNCCc1ccc(CNCCc2ccccc2)cc1)c3ccc(O)c4NC(=O)Sc34

>  <parent_molecule_chembl_id>  (321) 
CHEMBL1944695

>  <assay_type>  (321) 
B

>  <src_id>  (321) 
1

>  <ligand_efficiency>  (321) 
{u'le': u'0.24', u'bei': u'12.3', u'sei': u'4.79', u'lle': u'1.67'}

>  <standard_flag>  (321) 
True

>  <molecule_chembl_id>  (321) 
CHEMBL1944695

>  <target_organism>  (321) 
Homo sapiens

>  <standard_units>  (321) 
nM

>  <record_id>  (321) 
1573536

>  <document_chembl_id>  (321) 
CHEMBL1944599

>  <bao_format>  (321) 
BAO_0000357

>  <data_validity_description>  (321) 
None

>  <activity_id>  (321) 
8023031

>  <standard_type>  (321) 
IC50

>  <target_chembl_id>  (321) 
CHEMBL217

>  <data_validity_comment>  (321) 
None

>  <published_value>  (321) 
5.7

>  <document_year>  (321) 
2012

>  <target_pref_name>  (321) 
Dopamine D2 receptor

>  <assay_chembl_id>  (321) 
CHEMBL1947794

>  <standard_relation>  (321) 
=

>  <assay_description>  (321) 
Displacement of radiolabeled spiperone from dopamine D2 receptor

>  <published_relation>  (321) 
=

>  <standard_value>  (321) 
1995.26

>  <qudt_units>  (321) 
http://www.openphacts.org/units/Nanomolar

>  <target_tax_id>  (321) 
9606

>  <bao_label>  (321) 
single protein format

>  <published_units>  (321) 
None

>  <pchembl_value>  (321) 
5.7

>  <published_type>  (321) 
pIC50

>  <activity_comment>  (321) 
None

$$$$

     RDKit          

 37 41  0  0  0  0  0  0  0  0999 V2000
    0.0000    0.0000    0.0000 C   0  0  0  0  0  0  0  0  0  0  0  0
    0.0000    0.0000    0.0000 C   0  0  0  0  0  0  0  0  0  0  0  0
    0.0000    0.0000    0.0000 C   0  0  0  0  0  0  0  0  0  0  0  0
    0.0000    0.0000    0.0000 C   0  0  0  0  0  0  0  0  0  0  0  0
    0.0000    0.0000    0.0000 C   0  0  0  0  0  0  0  0  0  0  0  0
    0.0000    0.0000    0.0000 C   0  0  0  0  0  0  0  0  0  0  0  0
    0.0000    0.0000    0.0000 C   0  0  0  0  0  0  0  0  0  0  0  0
    0.0000    0.0000    0.0000 C   0  0  0  0  0  0  0  0  0  0  0  0
    0.0000    0.0000    0.0000 C   0  0  0  0  0  0  0  0  0  0  0  0
    0.0000    0.0000    0.0000 N   0  0  0  0  0  0  0  0  0  0  0  0
    0.0000    0.0000    0.0000 C   0  0  0  0  0  0  0  0  0  0  0  0
    0.0000    0.0000    0.0000 C   0  0  0  0  0  0  0  0  0  0  0  0
    0.0000    0.0000    0.0000 C   0  0  0  0  0  0  0  0  0  0  0  0
    0.0000    0.0000    0.0000 C   0  0  0  0  0  0  0  0  0  0  0  0
    0.0000    0.0000    0.0000 C   0  0  0  0  0  0  0  0  0  0  0  0
    0.0000    0.0000    0.0000 C   0  0  0  0  0  0  0  0  0  0  0  0
    0.0000    0.0000    0.0000 C   0  0  0  0  0  0  0  0  0  0  0  0
    0.0000    0.0000    0.0000 C   0  0  0  0  0  0  0  0  0  0  0  0
    0.0000    0.0000    0.0000 N   0  0  0  0  0  0  0  0  0  0  0  0
    0.0000    0.0000    0.0000 C   0  0  0  0  0  0  0  0  0  0  0  0
    0.0000    0.0000    0.0000 C   0  0  0  0  0  0  0  0  0  0  0  0
    0.0000    0.0000    0.0000 O   0  0  0  0  0  0  0  0  0  0  0  0
    0.0000    0.0000    0.0000 C   0  0  0  0  0  0  0  0  0  0  0  0
    0.0000    0.0000    0.0000 C   0  0  0  0  0  0  0  0  0  0  0  0
    0.0000    0.0000    0.0000 C   0  0  0  0  0  0  0  0  0  0  0  0
    0.0000    0.0000    0.0000 C   0  0  0  0  0  0  0  0  0  0  0  0
    0.0000    0.0000    0.0000 O   0  0  0  0  0  0  0  0  0  0  0  0
    0.0000    0.0000    0.0000 C   0  0  0  0  0  0  0  0  0  0  0  0
    0.0000    0.0000    0.0000 N   0  0  0  0  0  0  0  0  0  0  0  0
    0.0000    0.0000    0.0000 C   0  0  0  0  0  0  0  0  0  0  0  0
    0.0000    0.0000    0.0000 O   0  0  0  0  0  0  0  0  0  0  0  0
    0.0000    0.0000    0.0000 S   0  0  0  0  0  0  0  0  0  0  0  0
    0.0000    0.0000    0.0000 C   0  0  0  0  0  0  0  0  0  0  0  0
    0.0000    0.0000    0.0000 C   0  0  0  0  0  0  0  0  0  0  0  0
    0.0000    0.0000    0.0000 C   0  0  0  0  0  0  0  0  0  0  0  0
    0.0000    0.0000    0.0000 N   0  0  0  0  0  0  0  0  0  0  0  0
    0.0000    0.0000    0.0000 C   0  0  0  0  0  0  0  0  0  0  0  0
  1  2  1  0
  2  3  2  0
  3  4  1  0
  4  5  2  0
  5  6  1  0
  6  7  1  0
  7  8  1  0
  8  9  1  0
  9 10  1  0
 10 11  1  0
 11 12  1  0
 12 13  2  0
 13 14  1  0
 14 15  2  0
 15 16  1  0
 16 17  1  0
 17 18  1  0
 18 19  1  0
 19 20  1  0
 20 21  1  0
 21 22  1  0
 21 23  1  0
 23 24  2  0
 24 25  1  0
 25 26  2  0
 26 27  1  0
 26 28  1  0
 28 29  1  0
 29 30  1  0
 30 31  2  0
 30 32  1  0
 32 33  1  0
 16 34  2  0
  7 35  2  0
 35 36  1  0
 36 37  1  0
 37  2  1  0
 37  6  2  0
 34 12  1  0
 33 23  1  0
 33 28  2  0
M  END
>  <pIC50>  (322) 
6.4

>  <ChEMBL_ID>  (322) 
CHEMBL1945031

>  <document_journal>  (322) 
Bioorg. Med. Chem. Lett.

>  <bao_endpoint>  (322) 
BAO_0000190

>  <potential_duplicate>  (322) 
False

>  <uo_units>  (322) 
UO_0000065

>  <canonical_smiles>  (322) 
Cc1cccc2c(CCNCc3cccc(CCNC[C@H](O)c4ccc(O)c5NC(=O)Sc45)c3)c[nH]c12

>  <parent_molecule_chembl_id>  (322) 
CHEMBL1945031

>  <assay_type>  (322) 
B

>  <src_id>  (322) 
1

>  <ligand_efficiency>  (322) 
{u'le': u'0.24', u'bei': u'12.39', u'sei': u'4.75', u'lle': u'1.59'}

>  <standard_flag>  (322) 
True

>  <molecule_chembl_id>  (322) 
CHEMBL1945031

>  <target_organism>  (322) 
Homo sapiens

>  <standard_units>  (322) 
nM

>  <record_id>  (322) 
1573950

>  <document_chembl_id>  (322) 
CHEMBL1944599

>  <bao_format>  (322) 
BAO_0000357

>  <data_validity_description>  (322) 
None

>  <activity_id>  (322) 
8023032

>  <standard_type>  (322) 
IC50

>  <target_chembl_id>  (322) 
CHEMBL217

>  <data_validity_comment>  (322) 
None

>  <published_value>  (322) 
6.4

>  <document_year>  (322) 
2012

>  <target_pref_name>  (322) 
Dopamine D2 receptor

>  <assay_chembl_id>  (322) 
CHEMBL1947794

>  <standard_relation>  (322) 
=

>  <assay_description>  (322) 
Displacement of radiolabeled spiperone from dopamine D2 receptor

>  <published_relation>  (322) 
=

>  <standard_value>  (322) 
398.11

>  <qudt_units>  (322) 
http://www.openphacts.org/units/Nanomolar

>  <target_tax_id>  (322) 
9606

>  <bao_label>  (322) 
single protein format

>  <published_units>  (322) 
None

>  <pchembl_value>  (322) 
6.4

>  <published_type>  (322) 
pIC50

>  <activity_comment>  (322) 
None

$$$$

     RDKit          

 33 36  0  0  0  0  0  0  0  0999 V2000
    0.0000    0.0000    0.0000 O   0  0  0  0  0  0  0  0  0  0  0  0
    0.0000    0.0000    0.0000 C   0  0  0  0  0  0  0  0  0  0  0  0
    0.0000    0.0000    0.0000 C   0  0  0  0  0  0  0  0  0  0  0  0
    0.0000    0.0000    0.0000 N   0  0  0  0  0  0  0  0  0  0  0  0
    0.0000    0.0000    0.0000 C   0  0  0  0  0  0  0  0  0  0  0  0
    0.0000    0.0000    0.0000 C   0  0  0  0  0  0  0  0  0  0  0  0
    0.0000    0.0000    0.0000 C   0  0  0  0  0  0  0  0  0  0  0  0
    0.0000    0.0000    0.0000 C   0  0  0  0  0  0  0  0  0  0  0  0
    0.0000    0.0000    0.0000 C   0  0  0  0  0  0  0  0  0  0  0  0
    0.0000    0.0000    0.0000 C   0  0  0  0  0  0  0  0  0  0  0  0
    0.0000    0.0000    0.0000 C   0  0  0  0  0  0  0  0  0  0  0  0
    0.0000    0.0000    0.0000 C   0  0  0  0  0  0  0  0  0  0  0  0
    0.0000    0.0000    0.0000 N   0  0  0  0  0  0  0  0  0  0  0  0
    0.0000    0.0000    0.0000 C   0  0  0  0  0  0  0  0  0  0  0  0
    0.0000    0.0000    0.0000 C   0  0  0  0  0  0  0  0  0  0  0  0
    0.0000    0.0000    0.0000 C   0  0  0  0  0  0  0  0  0  0  0  0
    0.0000    0.0000    0.0000 C   0  0  0  0  0  0  0  0  0  0  0  0
    0.0000    0.0000    0.0000 C   0  0  0  0  0  0  0  0  0  0  0  0
    0.0000    0.0000    0.0000 C   0  0  0  0  0  0  0  0  0  0  0  0
    0.0000    0.0000    0.0000 C   0  0  0  0  0  0  0  0  0  0  0  0
    0.0000    0.0000    0.0000 N   0  0  0  0  0  0  0  0  0  0  0  0
    0.0000    0.0000    0.0000 C   0  0  0  0  0  0  0  0  0  0  0  0
    0.0000    0.0000    0.0000 C   0  0  0  0  0  0  0  0  0  0  0  0
    0.0000    0.0000    0.0000 C   0  0  0  0  0  0  0  0  0  0  0  0
    0.0000    0.0000    0.0000 C   0  0  0  0  0  0  0  0  0  0  0  0
    0.0000    0.0000    0.0000 C   0  0  0  0  0  0  0  0  0  0  0  0
    0.0000    0.0000    0.0000 O   0  0  0  0  0  0  0  0  0  0  0  0
    0.0000    0.0000    0.0000 C   0  0  0  0  0  0  0  0  0  0  0  0
    0.0000    0.0000    0.0000 N   0  0  0  0  0  0  0  0  0  0  0  0
    0.0000    0.0000    0.0000 C   0  0  0  0  0  0  0  0  0  0  0  0
    0.0000    0.0000    0.0000 O   0  0  0  0  0  0  0  0  0  0  0  0
    0.0000    0.0000    0.0000 S   0  0  0  0  0  0  0  0  0  0  0  0
    0.0000    0.0000    0.0000 C   0  0  0  0  0  0  0  0  0  0  0  0
  1  2  1  0
  2  3  1  0
  3  4  1  0
  4  5  1  0
  5  6  1  0
  6  7  1  0
  7  8  2  0
  8  9  1  0
  9 10  2  0
 10 11  1  0
 11 12  1  0
 12 13  1  0
 13 14  1  0
 14 15  1  0
 15 16  1  0
 16 17  2  0
 17 18  1  0
 18 19  2  0
 19 20  1  0
 20 21  2  0
 11 22  2  0
  2 23  1  0
 23 24  2  0
 24 25  1  0
 25 26  2  0
 26 27  1  0
 26 28  1  0
 28 29  1  0
 29 30  1  0
 30 31  2  0
 30 32  1  0
 32 33  1  0
 22  7  1  0
 21 16  1  0
 33 23  1  0
 33 28  2  0
M  END
>  <pIC50>  (323) 
5.8

>  <ChEMBL_ID>  (323) 
CHEMBL1945033

>  <document_journal>  (323) 
Bioorg. Med. Chem. Lett.

>  <bao_endpoint>  (323) 
BAO_0000190

>  <potential_duplicate>  (323) 
False

>  <uo_units>  (323) 
UO_0000065

>  <canonical_smiles>  (323) 
O[C@@H](CNCCc1cccc(CNCCc2ccccn2)c1)c3ccc(O)c4NC(=O)Sc34

>  <parent_molecule_chembl_id>  (323) 
CHEMBL1945033

>  <assay_type>  (323) 
B

>  <src_id>  (323) 
1

>  <ligand_efficiency>  (323) 
{u'le': u'0.24', u'bei': u'12.48', u'sei': u'4.4', u'lle': u'2.78'}

>  <standard_flag>  (323) 
True

>  <molecule_chembl_id>  (323) 
CHEMBL1945033

>  <target_organism>  (323) 
Homo sapiens

>  <standard_units>  (323) 
nM

>  <record_id>  (323) 
1573952

>  <document_chembl_id>  (323) 
CHEMBL1944599

>  <bao_format>  (323) 
BAO_0000357

>  <data_validity_description>  (323) 
None

>  <activity_id>  (323) 
8023034

>  <standard_type>  (323) 
IC50

>  <target_chembl_id>  (323) 
CHEMBL217

>  <data_validity_comment>  (323) 
None

>  <published_value>  (323) 
5.8

>  <document_year>  (323) 
2012

>  <target_pref_name>  (323) 
Dopamine D2 receptor

>  <assay_chembl_id>  (323) 
CHEMBL1947794

>  <standard_relation>  (323) 
=

>  <assay_description>  (323) 
Displacement of radiolabeled spiperone from dopamine D2 receptor

>  <published_relation>  (323) 
=

>  <standard_value>  (323) 
1584.89

>  <qudt_units>  (323) 
http://www.openphacts.org/units/Nanomolar

>  <target_tax_id>  (323) 
9606

>  <bao_label>  (323) 
single protein format

>  <published_units>  (323) 
None

>  <pchembl_value>  (323) 
5.8

>  <published_type>  (323) 
pIC50

>  <activity_comment>  (323) 
None

$$$$

     RDKit          

 33 36  0  0  0  0  0  0  0  0999 V2000
    0.0000    0.0000    0.0000 O   0  0  0  0  0  0  0  0  0  0  0  0
    0.0000    0.0000    0.0000 C   0  0  0  0  0  0  0  0  0  0  0  0
    0.0000    0.0000    0.0000 C   0  0  0  0  0  0  0  0  0  0  0  0
    0.0000    0.0000    0.0000 N   0  0  0  0  0  0  0  0  0  0  0  0
    0.0000    0.0000    0.0000 C   0  0  0  0  0  0  0  0  0  0  0  0
    0.0000    0.0000    0.0000 C   0  0  0  0  0  0  0  0  0  0  0  0
    0.0000    0.0000    0.0000 C   0  0  0  0  0  0  0  0  0  0  0  0
    0.0000    0.0000    0.0000 C   0  0  0  0  0  0  0  0  0  0  0  0
    0.0000    0.0000    0.0000 C   0  0  0  0  0  0  0  0  0  0  0  0
    0.0000    0.0000    0.0000 C   0  0  0  0  0  0  0  0  0  0  0  0
    0.0000    0.0000    0.0000 C   0  0  0  0  0  0  0  0  0  0  0  0
    0.0000    0.0000    0.0000 N   0  0  0  0  0  0  0  0  0  0  0  0
    0.0000    0.0000    0.0000 C   0  0  0  0  0  0  0  0  0  0  0  0
    0.0000    0.0000    0.0000 C   0  0  0  0  0  0  0  0  0  0  0  0
    0.0000    0.0000    0.0000 C   0  0  0  0  0  0  0  0  0  0  0  0
    0.0000    0.0000    0.0000 C   0  0  0  0  0  0  0  0  0  0  0  0
    0.0000    0.0000    0.0000 C   0  0  0  0  0  0  0  0  0  0  0  0
    0.0000    0.0000    0.0000 C   0  0  0  0  0  0  0  0  0  0  0  0
    0.0000    0.0000    0.0000 C   0  0  0  0  0  0  0  0  0  0  0  0
    0.0000    0.0000    0.0000 N   0  0  0  0  0  0  0  0  0  0  0  0
    0.0000    0.0000    0.0000 C   0  0  0  0  0  0  0  0  0  0  0  0
    0.0000    0.0000    0.0000 C   0  0  0  0  0  0  0  0  0  0  0  0
    0.0000    0.0000    0.0000 C   0  0  0  0  0  0  0  0  0  0  0  0
    0.0000    0.0000    0.0000 C   0  0  0  0  0  0  0  0  0  0  0  0
    0.0000    0.0000    0.0000 C   0  0  0  0  0  0  0  0  0  0  0  0
    0.0000    0.0000    0.0000 C   0  0  0  0  0  0  0  0  0  0  0  0
    0.0000    0.0000    0.0000 O   0  0  0  0  0  0  0  0  0  0  0  0
    0.0000    0.0000    0.0000 C   0  0  0  0  0  0  0  0  0  0  0  0
    0.0000    0.0000    0.0000 N   0  0  0  0  0  0  0  0  0  0  0  0
    0.0000    0.0000    0.0000 C   0  0  0  0  0  0  0  0  0  0  0  0
    0.0000    0.0000    0.0000 O   0  0  0  0  0  0  0  0  0  0  0  0
    0.0000    0.0000    0.0000 S   0  0  0  0  0  0  0  0  0  0  0  0
    0.0000    0.0000    0.0000 C   0  0  0  0  0  0  0  0  0  0  0  0
  1  2  1  0
  2  3  1  0
  3  4  1  0
  4  5  1  0
  5  6  1  0
  6  7  1  0
  7  8  2  0
  8  9  1  0
  9 10  2  0
 10 11  1  0
 11 12  1  0
 12 13  1  0
 13 14  1  0
 14 15  1  0
 15 16  2  0
 16 17  1  0
 17 18  2  0
 18 19  1  0
 19 20  2  0
 10 21  1  0
 21 22  2  0
  2 23  1  0
 23 24  2  0
 24 25  1  0
 25 26  2  0
 26 27  1  0
 26 28  1  0
 28 29  1  0
 29 30  1  0
 30 31  2  0
 30 32  1  0
 32 33  1  0
 22  7  1  0
 20 15  1  0
 33 23  1  0
 33 28  2  0
M  END
>  <pIC50>  (324) 
5.6

>  <ChEMBL_ID>  (324) 
CHEMBL1945034

>  <document_journal>  (324) 
Bioorg. Med. Chem. Lett.

>  <bao_endpoint>  (324) 
BAO_0000190

>  <potential_duplicate>  (324) 
False

>  <uo_units>  (324) 
UO_0000065

>  <canonical_smiles>  (324) 
O[C@@H](CNCCc1ccc(CNCCc2ccccn2)cc1)c3ccc(O)c4NC(=O)Sc34

>  <parent_molecule_chembl_id>  (324) 
CHEMBL1945034

>  <assay_type>  (324) 
B

>  <src_id>  (324) 
1

>  <ligand_efficiency>  (324) 
{u'le': u'0.23', u'bei': u'12.05', u'sei': u'4.25', u'lle': u'2.58'}

>  <standard_flag>  (324) 
True

>  <molecule_chembl_id>  (324) 
CHEMBL1945034

>  <target_organism>  (324) 
Homo sapiens

>  <standard_units>  (324) 
nM

>  <record_id>  (324) 
1573953

>  <document_chembl_id>  (324) 
CHEMBL1944599

>  <bao_format>  (324) 
BAO_0000357

>  <data_validity_description>  (324) 
None

>  <activity_id>  (324) 
8023035

>  <standard_type>  (324) 
IC50

>  <target_chembl_id>  (324) 
CHEMBL217

>  <data_validity_comment>  (324) 
None

>  <published_value>  (324) 
5.6

>  <document_year>  (324) 
2012

>  <target_pref_name>  (324) 
Dopamine D2 receptor

>  <assay_chembl_id>  (324) 
CHEMBL1947794

>  <standard_relation>  (324) 
=

>  <assay_description>  (324) 
Displacement of radiolabeled spiperone from dopamine D2 receptor

>  <published_relation>  (324) 
=

>  <standard_value>  (324) 
2511.89

>  <qudt_units>  (324) 
http://www.openphacts.org/units/Nanomolar

>  <target_tax_id>  (324) 
9606

>  <bao_label>  (324) 
single protein format

>  <published_units>  (324) 
None

>  <pchembl_value>  (324) 
5.6

>  <published_type>  (324) 
pIC50

>  <activity_comment>  (324) 
None

$$$$

     RDKit          

 34 37  0  0  0  0  0  0  0  0999 V2000
    0.0000    0.0000    0.0000 O   0  0  0  0  0  0  0  0  0  0  0  0
    0.0000    0.0000    0.0000 C   0  0  0  0  0  0  0  0  0  0  0  0
    0.0000    0.0000    0.0000 C   0  0  0  0  0  0  0  0  0  0  0  0
    0.0000    0.0000    0.0000 N   0  0  0  0  0  0  0  0  0  0  0  0
    0.0000    0.0000    0.0000 C   0  0  0  0  0  0  0  0  0  0  0  0
    0.0000    0.0000    0.0000 C   0  0  0  0  0  0  0  0  0  0  0  0
    0.0000    0.0000    0.0000 C   0  0  0  0  0  0  0  0  0  0  0  0
    0.0000    0.0000    0.0000 C   0  0  0  0  0  0  0  0  0  0  0  0
    0.0000    0.0000    0.0000 C   0  0  0  0  0  0  0  0  0  0  0  0
    0.0000    0.0000    0.0000 C   0  0  0  0  0  0  0  0  0  0  0  0
    0.0000    0.0000    0.0000 C   0  0  0  0  0  0  0  0  0  0  0  0
    0.0000    0.0000    0.0000 C   0  0  0  0  0  0  0  0  0  0  0  0
    0.0000    0.0000    0.0000 C   0  0  0  0  0  0  0  0  0  0  0  0
    0.0000    0.0000    0.0000 N   0  0  0  0  0  0  0  0  0  0  0  0
    0.0000    0.0000    0.0000 C   0  0  0  0  0  0  0  0  0  0  0  0
    0.0000    0.0000    0.0000 C   0  0  0  0  0  0  0  0  0  0  0  0
    0.0000    0.0000    0.0000 C   0  0  0  0  0  0  0  0  0  0  0  0
    0.0000    0.0000    0.0000 C   0  0  0  0  0  0  0  0  0  0  0  0
    0.0000    0.0000    0.0000 C   0  0  0  0  0  0  0  0  0  0  0  0
    0.0000    0.0000    0.0000 C   0  0  0  0  0  0  0  0  0  0  0  0
    0.0000    0.0000    0.0000 C   0  0  0  0  0  0  0  0  0  0  0  0
    0.0000    0.0000    0.0000 C   0  0  0  0  0  0  0  0  0  0  0  0
    0.0000    0.0000    0.0000 F   0  0  0  0  0  0  0  0  0  0  0  0
    0.0000    0.0000    0.0000 C   0  0  0  0  0  0  0  0  0  0  0  0
    0.0000    0.0000    0.0000 C   0  0  0  0  0  0  0  0  0  0  0  0
    0.0000    0.0000    0.0000 C   0  0  0  0  0  0  0  0  0  0  0  0
    0.0000    0.0000    0.0000 C   0  0  0  0  0  0  0  0  0  0  0  0
    0.0000    0.0000    0.0000 O   0  0  0  0  0  0  0  0  0  0  0  0
    0.0000    0.0000    0.0000 C   0  0  0  0  0  0  0  0  0  0  0  0
    0.0000    0.0000    0.0000 N   0  0  0  0  0  0  0  0  0  0  0  0
    0.0000    0.0000    0.0000 C   0  0  0  0  0  0  0  0  0  0  0  0
    0.0000    0.0000    0.0000 O   0  0  0  0  0  0  0  0  0  0  0  0
    0.0000    0.0000    0.0000 S   0  0  0  0  0  0  0  0  0  0  0  0
    0.0000    0.0000    0.0000 C   0  0  0  0  0  0  0  0  0  0  0  0
  1  2  1  0
  2  3  1  0
  3  4  1  0
  4  5  1  0
  5  6  1  0
  6  7  1  0
  7  8  2  0
  8  9  1  0
  9 10  2  0
 10 11  1  0
 11 12  2  0
 12 13  1  0
 13 14  1  0
 14 15  1  0
 15 16  1  0
 16 17  1  0
 17 18  2  0
 18 19  1  0
 19 20  2  0
 20 21  1  0
 21 22  2  0
 22 23  1  0
  2 24  1  0
 24 25  2  0
 25 26  1  0
 26 27  2  0
 27 28  1  0
 27 29  1  0
 29 30  1  0
 30 31  1  0
 31 32  2  0
 31 33  1  0
 33 34  1  0
 12  7  1  0
 22 17  1  0
 34 24  1  0
 34 29  2  0
M  END
>  <pIC50>  (325) 
6.1

>  <ChEMBL_ID>  (325) 
CHEMBL1945035

>  <document_journal>  (325) 
Bioorg. Med. Chem. Lett.

>  <bao_endpoint>  (325) 
BAO_0000190

>  <potential_duplicate>  (325) 
False

>  <uo_units>  (325) 
UO_0000065

>  <canonical_smiles>  (325) 
O[C@@H](CNCCc1ccccc1CNCCc2ccccc2F)c3ccc(O)c4NC(=O)Sc34

>  <parent_molecule_chembl_id>  (325) 
CHEMBL1945035

>  <assay_type>  (325) 
B

>  <src_id>  (325) 
1

>  <ligand_efficiency>  (325) 
{u'le': u'0.25', u'bei': u'12.67', u'sei': u'5.13', u'lle': u'1.86'}

>  <standard_flag>  (325) 
True

>  <molecule_chembl_id>  (325) 
CHEMBL1945035

>  <target_organism>  (325) 
Homo sapiens

>  <standard_units>  (325) 
nM

>  <record_id>  (325) 
1573954

>  <document_chembl_id>  (325) 
CHEMBL1944599

>  <bao_format>  (325) 
BAO_0000357

>  <data_validity_description>  (325) 
None

>  <activity_id>  (325) 
8023036

>  <standard_type>  (325) 
IC50

>  <target_chembl_id>  (325) 
CHEMBL217

>  <data_validity_comment>  (325) 
None

>  <published_value>  (325) 
6.1

>  <document_year>  (325) 
2012

>  <target_pref_name>  (325) 
Dopamine D2 receptor

>  <assay_chembl_id>  (325) 
CHEMBL1947794

>  <standard_relation>  (325) 
=

>  <assay_description>  (325) 
Displacement of radiolabeled spiperone from dopamine D2 receptor

>  <published_relation>  (325) 
=

>  <standard_value>  (325) 
794.33

>  <qudt_units>  (325) 
http://www.openphacts.org/units/Nanomolar

>  <target_tax_id>  (325) 
9606

>  <bao_label>  (325) 
single protein format

>  <published_units>  (325) 
None

>  <pchembl_value>  (325) 
6.1

>  <published_type>  (325) 
pIC50

>  <activity_comment>  (325) 
None

$$$$

     RDKit          

 34 37  0  0  0  0  0  0  0  0999 V2000
    0.0000    0.0000    0.0000 C   0  0  0  0  0  0  0  0  0  0  0  0
    0.0000    0.0000    0.0000 C   0  0  0  0  0  0  0  0  0  0  0  0
    0.0000    0.0000    0.0000 C   0  0  0  0  0  0  0  0  0  0  0  0
    0.0000    0.0000    0.0000 N   0  0  0  0  0  0  0  0  0  0  0  0
    0.0000    0.0000    0.0000 C   0  0  0  0  0  0  0  0  0  0  0  0
    0.0000    0.0000    0.0000 C   0  0  0  0  0  0  0  0  0  0  0  0
    0.0000    0.0000    0.0000 C   0  0  0  0  0  0  0  0  0  0  0  0
    0.0000    0.0000    0.0000 C   0  0  0  0  0  0  0  0  0  0  0  0
    0.0000    0.0000    0.0000 C   0  0  0  0  0  0  0  0  0  0  0  0
    0.0000    0.0000    0.0000 C   0  0  0  0  0  0  0  0  0  0  0  0
    0.0000    0.0000    0.0000 C   0  0  0  0  0  0  0  0  0  0  0  0
    0.0000    0.0000    0.0000 N   0  0  0  0  0  0  0  0  0  0  0  0
    0.0000    0.0000    0.0000 C   0  0  0  0  0  0  0  0  0  0  0  0
    0.0000    0.0000    0.0000 C   0  0  0  0  0  0  0  0  0  0  0  0
    0.0000    0.0000    0.0000 O   0  0  0  0  0  0  0  0  0  0  0  0
    0.0000    0.0000    0.0000 C   0  0  0  0  0  0  0  0  0  0  0  0
    0.0000    0.0000    0.0000 C   0  0  0  0  0  0  0  0  0  0  0  0
    0.0000    0.0000    0.0000 C   0  0  0  0  0  0  0  0  0  0  0  0
    0.0000    0.0000    0.0000 C   0  0  0  0  0  0  0  0  0  0  0  0
    0.0000    0.0000    0.0000 O   0  0  0  0  0  0  0  0  0  0  0  0
    0.0000    0.0000    0.0000 C   0  0  0  0  0  0  0  0  0  0  0  0
    0.0000    0.0000    0.0000 N   0  0  0  0  0  0  0  0  0  0  0  0
    0.0000    0.0000    0.0000 C   0  0  0  0  0  0  0  0  0  0  0  0
    0.0000    0.0000    0.0000 O   0  0  0  0  0  0  0  0  0  0  0  0
    0.0000    0.0000    0.0000 S   0  0  0  0  0  0  0  0  0  0  0  0
    0.0000    0.0000    0.0000 C   0  0  0  0  0  0  0  0  0  0  0  0
    0.0000    0.0000    0.0000 C   0  0  0  0  0  0  0  0  0  0  0  0
    0.0000    0.0000    0.0000 C   0  0  0  0  0  0  0  0  0  0  0  0
    0.0000    0.0000    0.0000 C   0  0  0  0  0  0  0  0  0  0  0  0
    0.0000    0.0000    0.0000 C   0  0  0  0  0  0  0  0  0  0  0  0
    0.0000    0.0000    0.0000 C   0  0  0  0  0  0  0  0  0  0  0  0
    0.0000    0.0000    0.0000 C   0  0  0  0  0  0  0  0  0  0  0  0
    0.0000    0.0000    0.0000 C   0  0  0  0  0  0  0  0  0  0  0  0
    0.0000    0.0000    0.0000 C   0  0  0  0  0  0  0  0  0  0  0  0
  1  2  1  0
  2  3  1  0
  3  4  1  0
  4  5  1  0
  5  6  1  0
  6  7  2  0
  7  8  1  0
  8  9  2  0
  9 10  1  0
 10 11  1  0
 11 12  1  0
 12 13  1  0
 13 14  1  0
 14 15  1  0
 14 16  1  0
 16 17  2  0
 17 18  1  0
 18 19  2  0
 19 20  1  0
 19 21  1  0
 21 22  1  0
 22 23  1  0
 23 24  2  0
 23 25  1  0
 25 26  1  0
  9 27  1  0
 27 28  2  0
  2 29  1  0
 29 30  2  0
 30 31  1  0
 31 32  2  0
 32 33  1  0
 33 34  2  0
 28  6  1  0
 26 16  1  0
 26 21  2  0
 34 29  1  0
M  END
>  <pIC50>  (326) 
5.6

>  <ChEMBL_ID>  (326) 
CHEMBL1945036

>  <document_journal>  (326) 
Bioorg. Med. Chem. Lett.

>  <bao_endpoint>  (326) 
BAO_0000190

>  <potential_duplicate>  (326) 
False

>  <uo_units>  (326) 
UO_0000065

>  <canonical_smiles>  (326) 
CC(CNCc1ccc(CCNC[C@H](O)c2ccc(O)c3NC(=O)Sc23)cc1)c4ccccc4

>  <parent_molecule_chembl_id>  (326) 
CHEMBL1945036

>  <assay_type>  (326) 
B

>  <src_id>  (326) 
1

>  <ligand_efficiency>  (326) 
{u'le': u'0.22', u'bei': u'11.72', u'sei': u'4.71', u'lle': u'1.25'}

>  <standard_flag>  (326) 
True

>  <molecule_chembl_id>  (326) 
CHEMBL1945036

>  <target_organism>  (326) 
Homo sapiens

>  <standard_units>  (326) 
nM

>  <record_id>  (326) 
1573955

>  <document_chembl_id>  (326) 
CHEMBL1944599

>  <bao_format>  (326) 
BAO_0000357

>  <data_validity_description>  (326) 
None

>  <activity_id>  (326) 
8023037

>  <standard_type>  (326) 
IC50

>  <target_chembl_id>  (326) 
CHEMBL217

>  <data_validity_comment>  (326) 
None

>  <published_value>  (326) 
5.6

>  <document_year>  (326) 
2012

>  <target_pref_name>  (326) 
Dopamine D2 receptor

>  <assay_chembl_id>  (326) 
CHEMBL1947794

>  <standard_relation>  (326) 
=

>  <assay_description>  (326) 
Displacement of radiolabeled spiperone from dopamine D2 receptor

>  <published_relation>  (326) 
=

>  <standard_value>  (326) 
2511.89

>  <qudt_units>  (326) 
http://www.openphacts.org/units/Nanomolar

>  <target_tax_id>  (326) 
9606

>  <bao_label>  (326) 
single protein format

>  <published_units>  (326) 
None

>  <pchembl_value>  (326) 
5.6

>  <published_type>  (326) 
pIC50

>  <activity_comment>  (326) 
None

$$$$

     RDKit          

 34 37  0  0  0  0  0  0  0  0999 V2000
    0.0000    0.0000    0.0000 O   0  0  0  0  0  0  0  0  0  0  0  0
    0.0000    0.0000    0.0000 C   0  0  0  0  0  0  0  0  0  0  0  0
    0.0000    0.0000    0.0000 C   0  0  0  0  0  0  0  0  0  0  0  0
    0.0000    0.0000    0.0000 N   0  0  0  0  0  0  0  0  0  0  0  0
    0.0000    0.0000    0.0000 C   0  0  0  0  0  0  0  0  0  0  0  0
    0.0000    0.0000    0.0000 C   0  0  0  0  0  0  0  0  0  0  0  0
    0.0000    0.0000    0.0000 C   0  0  0  0  0  0  0  0  0  0  0  0
    0.0000    0.0000    0.0000 C   0  0  0  0  0  0  0  0  0  0  0  0
    0.0000    0.0000    0.0000 C   0  0  0  0  0  0  0  0  0  0  0  0
    0.0000    0.0000    0.0000 C   0  0  0  0  0  0  0  0  0  0  0  0
    0.0000    0.0000    0.0000 C   0  0  0  0  0  0  0  0  0  0  0  0
    0.0000    0.0000    0.0000 C   0  0  0  0  0  0  0  0  0  0  0  0
    0.0000    0.0000    0.0000 N   0  0  0  0  0  0  0  0  0  0  0  0
    0.0000    0.0000    0.0000 C   0  0  0  0  0  0  0  0  0  0  0  0
    0.0000    0.0000    0.0000 C   0  0  0  0  0  0  0  0  0  0  0  0
    0.0000    0.0000    0.0000 C   0  0  0  0  0  0  0  0  0  0  0  0
    0.0000    0.0000    0.0000 C   0  0  0  0  0  0  0  0  0  0  0  0
    0.0000    0.0000    0.0000 C   0  0  0  0  0  0  0  0  0  0  0  0
    0.0000    0.0000    0.0000 C   0  0  0  0  0  0  0  0  0  0  0  0
    0.0000    0.0000    0.0000 C   0  0  0  0  0  0  0  0  0  0  0  0
    0.0000    0.0000    0.0000 C   0  0  0  0  0  0  0  0  0  0  0  0
    0.0000    0.0000    0.0000 C   0  0  0  0  0  0  0  0  0  0  0  0
    0.0000    0.0000    0.0000 C   0  0  0  0  0  0  0  0  0  0  0  0
    0.0000    0.0000    0.0000 C   0  0  0  0  0  0  0  0  0  0  0  0
    0.0000    0.0000    0.0000 C   0  0  0  0  0  0  0  0  0  0  0  0
    0.0000    0.0000    0.0000 C   0  0  0  0  0  0  0  0  0  0  0  0
    0.0000    0.0000    0.0000 C   0  0  0  0  0  0  0  0  0  0  0  0
    0.0000    0.0000    0.0000 O   0  0  0  0  0  0  0  0  0  0  0  0
    0.0000    0.0000    0.0000 C   0  0  0  0  0  0  0  0  0  0  0  0
    0.0000    0.0000    0.0000 N   0  0  0  0  0  0  0  0  0  0  0  0
    0.0000    0.0000    0.0000 C   0  0  0  0  0  0  0  0  0  0  0  0
    0.0000    0.0000    0.0000 O   0  0  0  0  0  0  0  0  0  0  0  0
    0.0000    0.0000    0.0000 S   0  0  0  0  0  0  0  0  0  0  0  0
    0.0000    0.0000    0.0000 C   0  0  0  0  0  0  0  0  0  0  0  0
  1  2  1  0
  2  3  1  0
  3  4  1  0
  4  5  1  0
  5  6  1  0
  6  7  1  0
  7  8  2  0
  8  9  1  0
  9 10  2  0
 10 11  1  0
 11 12  1  0
 12 13  1  0
 13 14  1  0
 14 15  1  0
 15 16  1  0
 16 17  1  0
 17 18  2  0
 18 19  1  0
 19 20  2  0
 20 21  1  0
 21 22  2  0
 11 23  2  0
  2 24  1  0
 24 25  2  0
 25 26  1  0
 26 27  2  0
 27 28  1  0
 27 29  1  0
 29 30  1  0
 30 31  1  0
 31 32  2  0
 31 33  1  0
 33 34  1  0
 23  7  1  0
 22 17  1  0
 34 24  1  0
 34 29  2  0
M  END
>  <pIC50>  (327) 
6.5

>  <ChEMBL_ID>  (327) 
CHEMBL1945037

>  <document_journal>  (327) 
Bioorg. Med. Chem. Lett.

>  <bao_endpoint>  (327) 
BAO_0000190

>  <potential_duplicate>  (327) 
False

>  <uo_units>  (327) 
UO_0000065

>  <canonical_smiles>  (327) 
O[C@@H](CNCCc1cccc(CNCCCc2ccccc2)c1)c3ccc(O)c4NC(=O)Sc34

>  <parent_molecule_chembl_id>  (327) 
CHEMBL1945037

>  <assay_type>  (327) 
B

>  <src_id>  (327) 
1

>  <ligand_efficiency>  (327) 
{u'le': u'0.26', u'bei': u'13.61', u'sei': u'5.47', u'lle': u'2.01'}

>  <standard_flag>  (327) 
True

>  <molecule_chembl_id>  (327) 
CHEMBL1945037

>  <target_organism>  (327) 
Homo sapiens

>  <standard_units>  (327) 
nM

>  <record_id>  (327) 
1573956

>  <document_chembl_id>  (327) 
CHEMBL1944599

>  <bao_format>  (327) 
BAO_0000357

>  <data_validity_description>  (327) 
None

>  <activity_id>  (327) 
8023038

>  <standard_type>  (327) 
IC50

>  <target_chembl_id>  (327) 
CHEMBL217

>  <data_validity_comment>  (327) 
None

>  <published_value>  (327) 
6.5

>  <document_year>  (327) 
2012

>  <target_pref_name>  (327) 
Dopamine D2 receptor

>  <assay_chembl_id>  (327) 
CHEMBL1947794

>  <standard_relation>  (327) 
=

>  <assay_description>  (327) 
Displacement of radiolabeled spiperone from dopamine D2 receptor

>  <published_relation>  (327) 
=

>  <standard_value>  (327) 
316.23

>  <qudt_units>  (327) 
http://www.openphacts.org/units/Nanomolar

>  <target_tax_id>  (327) 
9606

>  <bao_label>  (327) 
single protein format

>  <published_units>  (327) 
None

>  <pchembl_value>  (327) 
6.5

>  <published_type>  (327) 
pIC50

>  <activity_comment>  (327) 
None

$$$$

     RDKit          

 34 37  0  0  0  0  0  0  0  0999 V2000
    0.0000    0.0000    0.0000 C   0  0  0  0  0  0  0  0  0  0  0  0
    0.0000    0.0000    0.0000 O   0  0  0  0  0  0  0  0  0  0  0  0
    0.0000    0.0000    0.0000 C   0  0  0  0  0  0  0  0  0  0  0  0
    0.0000    0.0000    0.0000 C   0  0  0  0  0  0  0  0  0  0  0  0
    0.0000    0.0000    0.0000 C   0  0  0  0  0  0  0  0  0  0  0  0
    0.0000    0.0000    0.0000 C   0  0  0  0  0  0  0  0  0  0  0  0
    0.0000    0.0000    0.0000 C   0  0  0  0  0  0  0  0  0  0  0  0
    0.0000    0.0000    0.0000 C   0  0  0  0  0  0  0  0  0  0  0  0
    0.0000    0.0000    0.0000 C   0  0  0  0  0  0  0  0  0  0  0  0
    0.0000    0.0000    0.0000 N   0  0  0  0  0  0  0  0  0  0  0  0
    0.0000    0.0000    0.0000 C   0  0  0  0  0  0  0  0  0  0  0  0
    0.0000    0.0000    0.0000 C   0  0  0  0  0  0  0  0  0  0  0  0
    0.0000    0.0000    0.0000 C   0  0  0  0  0  0  0  0  0  0  0  0
    0.0000    0.0000    0.0000 C   0  0  0  0  0  0  0  0  0  0  0  0
    0.0000    0.0000    0.0000 C   0  0  0  0  0  0  0  0  0  0  0  0
    0.0000    0.0000    0.0000 C   0  0  0  0  0  0  0  0  0  0  0  0
    0.0000    0.0000    0.0000 C   0  0  0  0  0  0  0  0  0  0  0  0
    0.0000    0.0000    0.0000 C   0  0  0  0  0  0  0  0  0  0  0  0
    0.0000    0.0000    0.0000 N   0  0  0  0  0  0  0  0  0  0  0  0
    0.0000    0.0000    0.0000 C   0  0  0  0  0  0  0  0  0  0  0  0
    0.0000    0.0000    0.0000 C   0  0  0  0  0  0  0  0  0  0  0  0
    0.0000    0.0000    0.0000 O   0  0  0  0  0  0  0  0  0  0  0  0
    0.0000    0.0000    0.0000 C   0  0  0  0  0  0  0  0  0  0  0  0
    0.0000    0.0000    0.0000 C   0  0  0  0  0  0  0  0  0  0  0  0
    0.0000    0.0000    0.0000 C   0  0  0  0  0  0  0  0  0  0  0  0
    0.0000    0.0000    0.0000 C   0  0  0  0  0  0  0  0  0  0  0  0
    0.0000    0.0000    0.0000 O   0  0  0  0  0  0  0  0  0  0  0  0
    0.0000    0.0000    0.0000 C   0  0  0  0  0  0  0  0  0  0  0  0
    0.0000    0.0000    0.0000 N   0  0  0  0  0  0  0  0  0  0  0  0
    0.0000    0.0000    0.0000 C   0  0  0  0  0  0  0  0  0  0  0  0
    0.0000    0.0000    0.0000 O   0  0  0  0  0  0  0  0  0  0  0  0
    0.0000    0.0000    0.0000 S   0  0  0  0  0  0  0  0  0  0  0  0
    0.0000    0.0000    0.0000 C   0  0  0  0  0  0  0  0  0  0  0  0
    0.0000    0.0000    0.0000 C   0  0  0  0  0  0  0  0  0  0  0  0
  1  2  1  0
  2  3  1  0
  3  4  2  0
  4  5  1  0
  5  6  2  0
  6  7  1  0
  7  8  2  0
  8  9  1  0
  9 10  1  0
 10 11  1  0
 11 12  1  0
 12 13  2  0
 13 14  1  0
 14 15  2  0
 15 16  1  0
 16 17  1  0
 17 18  1  0
 18 19  1  0
 19 20  1  0
 20 21  1  0
 21 22  1  0
 21 23  1  0
 23 24  2  0
 24 25  1  0
 25 26  2  0
 26 27  1  0
 26 28  1  0
 28 29  1  0
 29 30  1  0
 30 31  2  0
 30 32  1  0
 32 33  1  0
 16 34  2  0
  8  3  1  0
 34 12  1  0
 33 23  1  0
 33 28  2  0
M  END
>  <pIC50>  (328) 
6.0

>  <ChEMBL_ID>  (328) 
CHEMBL1945039

>  <document_journal>  (328) 
Bioorg. Med. Chem. Lett.

>  <bao_endpoint>  (328) 
BAO_0000190

>  <potential_duplicate>  (328) 
False

>  <uo_units>  (328) 
UO_0000065

>  <canonical_smiles>  (328) 
COc1ccccc1CNCc2cccc(CCNC[C@H](O)c3ccc(O)c4NC(=O)Sc34)c2

>  <parent_molecule_chembl_id>  (328) 
CHEMBL1945039

>  <assay_type>  (328) 
B

>  <src_id>  (328) 
1

>  <ligand_efficiency>  (328) 
{u'le': u'0.24', u'bei': u'12.51', u'sei': u'4.68', u'lle': u'2.31'}

>  <standard_flag>  (328) 
True

>  <molecule_chembl_id>  (328) 
CHEMBL1945039

>  <target_organism>  (328) 
Homo sapiens

>  <standard_units>  (328) 
nM

>  <record_id>  (328) 
1573958

>  <document_chembl_id>  (328) 
CHEMBL1944599

>  <bao_format>  (328) 
BAO_0000357

>  <data_validity_description>  (328) 
None

>  <activity_id>  (328) 
8023040

>  <standard_type>  (328) 
IC50

>  <target_chembl_id>  (328) 
CHEMBL217

>  <data_validity_comment>  (328) 
None

>  <published_value>  (328) 
6

>  <document_year>  (328) 
2012

>  <target_pref_name>  (328) 
Dopamine D2 receptor

>  <assay_chembl_id>  (328) 
CHEMBL1947794

>  <standard_relation>  (328) 
=

>  <assay_description>  (328) 
Displacement of radiolabeled spiperone from dopamine D2 receptor

>  <published_relation>  (328) 
=

>  <standard_value>  (328) 
1000

>  <qudt_units>  (328) 
http://www.openphacts.org/units/Nanomolar

>  <target_tax_id>  (328) 
9606

>  <bao_label>  (328) 
single protein format

>  <published_units>  (328) 
None

>  <pchembl_value>  (328) 
6

>  <published_type>  (328) 
pIC50

>  <activity_comment>  (328) 
None

$$$$

     RDKit          

 34 37  0  0  0  0  0  0  0  0999 V2000
    0.0000    0.0000    0.0000 C   0  0  0  0  0  0  0  0  0  0  0  0
    0.0000    0.0000    0.0000 O   0  0  0  0  0  0  0  0  0  0  0  0
    0.0000    0.0000    0.0000 C   0  0  0  0  0  0  0  0  0  0  0  0
    0.0000    0.0000    0.0000 C   0  0  0  0  0  0  0  0  0  0  0  0
    0.0000    0.0000    0.0000 C   0  0  0  0  0  0  0  0  0  0  0  0
    0.0000    0.0000    0.0000 C   0  0  0  0  0  0  0  0  0  0  0  0
    0.0000    0.0000    0.0000 C   0  0  0  0  0  0  0  0  0  0  0  0
    0.0000    0.0000    0.0000 C   0  0  0  0  0  0  0  0  0  0  0  0
    0.0000    0.0000    0.0000 C   0  0  0  0  0  0  0  0  0  0  0  0
    0.0000    0.0000    0.0000 N   0  0  0  0  0  0  0  0  0  0  0  0
    0.0000    0.0000    0.0000 C   0  0  0  0  0  0  0  0  0  0  0  0
    0.0000    0.0000    0.0000 C   0  0  0  0  0  0  0  0  0  0  0  0
    0.0000    0.0000    0.0000 C   0  0  0  0  0  0  0  0  0  0  0  0
    0.0000    0.0000    0.0000 C   0  0  0  0  0  0  0  0  0  0  0  0
    0.0000    0.0000    0.0000 C   0  0  0  0  0  0  0  0  0  0  0  0
    0.0000    0.0000    0.0000 C   0  0  0  0  0  0  0  0  0  0  0  0
    0.0000    0.0000    0.0000 C   0  0  0  0  0  0  0  0  0  0  0  0
    0.0000    0.0000    0.0000 N   0  0  0  0  0  0  0  0  0  0  0  0
    0.0000    0.0000    0.0000 C   0  0  0  0  0  0  0  0  0  0  0  0
    0.0000    0.0000    0.0000 C   0  0  0  0  0  0  0  0  0  0  0  0
    0.0000    0.0000    0.0000 O   0  0  0  0  0  0  0  0  0  0  0  0
    0.0000    0.0000    0.0000 C   0  0  0  0  0  0  0  0  0  0  0  0
    0.0000    0.0000    0.0000 C   0  0  0  0  0  0  0  0  0  0  0  0
    0.0000    0.0000    0.0000 C   0  0  0  0  0  0  0  0  0  0  0  0
    0.0000    0.0000    0.0000 C   0  0  0  0  0  0  0  0  0  0  0  0
    0.0000    0.0000    0.0000 O   0  0  0  0  0  0  0  0  0  0  0  0
    0.0000    0.0000    0.0000 C   0  0  0  0  0  0  0  0  0  0  0  0
    0.0000    0.0000    0.0000 N   0  0  0  0  0  0  0  0  0  0  0  0
    0.0000    0.0000    0.0000 C   0  0  0  0  0  0  0  0  0  0  0  0
    0.0000    0.0000    0.0000 O   0  0  0  0  0  0  0  0  0  0  0  0
    0.0000    0.0000    0.0000 S   0  0  0  0  0  0  0  0  0  0  0  0
    0.0000    0.0000    0.0000 C   0  0  0  0  0  0  0  0  0  0  0  0
    0.0000    0.0000    0.0000 C   0  0  0  0  0  0  0  0  0  0  0  0
    0.0000    0.0000    0.0000 C   0  0  0  0  0  0  0  0  0  0  0  0
  1  2  1  0
  2  3  1  0
  3  4  2  0
  4  5  1  0
  5  6  2  0
  6  7  1  0
  7  8  2  0
  8  9  1  0
  9 10  1  0
 10 11  1  0
 11 12  1  0
 12 13  2  0
 13 14  1  0
 14 15  2  0
 15 16  1  0
 16 17  1  0
 17 18  1  0
 18 19  1  0
 19 20  1  0
 20 21  1  0
 20 22  1  0
 22 23  2  0
 23 24  1  0
 24 25  2  0
 25 26  1  0
 25 27  1  0
 27 28  1  0
 28 29  1  0
 29 30  2  0
 29 31  1  0
 31 32  1  0
 15 33  1  0
 33 34  2  0
  8  3  1  0
 34 12  1  0
 32 22  1  0
 32 27  2  0
M  END
>  <pIC50>  (329) 
5.6

>  <ChEMBL_ID>  (329) 
CHEMBL1945040

>  <document_journal>  (329) 
Bioorg. Med. Chem. Lett.

>  <bao_endpoint>  (329) 
BAO_0000190

>  <potential_duplicate>  (329) 
False

>  <uo_units>  (329) 
UO_0000065

>  <canonical_smiles>  (329) 
COc1ccccc1CNCc2ccc(CCNC[C@H](O)c3ccc(O)c4NC(=O)Sc34)cc2

>  <parent_molecule_chembl_id>  (329) 
CHEMBL1945040

>  <assay_type>  (329) 
B

>  <src_id>  (329) 
1

>  <ligand_efficiency>  (329) 
{u'le': u'0.22', u'bei': u'11.68', u'sei': u'4.37', u'lle': u'1.91'}

>  <standard_flag>  (329) 
True

>  <molecule_chembl_id>  (329) 
CHEMBL1945040

>  <target_organism>  (329) 
Homo sapiens

>  <standard_units>  (329) 
nM

>  <record_id>  (329) 
1573959

>  <document_chembl_id>  (329) 
CHEMBL1944599

>  <bao_format>  (329) 
BAO_0000357

>  <data_validity_description>  (329) 
None

>  <activity_id>  (329) 
8023041

>  <standard_type>  (329) 
IC50

>  <target_chembl_id>  (329) 
CHEMBL217

>  <data_validity_comment>  (329) 
None

>  <published_value>  (329) 
5.6

>  <document_year>  (329) 
2012

>  <target_pref_name>  (329) 
Dopamine D2 receptor

>  <assay_chembl_id>  (329) 
CHEMBL1947794

>  <standard_relation>  (329) 
=

>  <assay_description>  (329) 
Displacement of radiolabeled spiperone from dopamine D2 receptor

>  <published_relation>  (329) 
=

>  <standard_value>  (329) 
2511.89

>  <qudt_units>  (329) 
http://www.openphacts.org/units/Nanomolar

>  <target_tax_id>  (329) 
9606

>  <bao_label>  (329) 
single protein format

>  <published_units>  (329) 
None

>  <pchembl_value>  (329) 
5.6

>  <published_type>  (329) 
pIC50

>  <activity_comment>  (329) 
None

$$$$

     RDKit          

 33 36  0  0  0  0  0  0  0  0999 V2000
    0.0000    0.0000    0.0000 O   0  0  0  0  0  0  0  0  0  0  0  0
    0.0000    0.0000    0.0000 C   0  0  0  0  0  0  0  0  0  0  0  0
    0.0000    0.0000    0.0000 C   0  0  0  0  0  0  0  0  0  0  0  0
    0.0000    0.0000    0.0000 N   0  0  0  0  0  0  0  0  0  0  0  0
    0.0000    0.0000    0.0000 C   0  0  0  0  0  0  0  0  0  0  0  0
    0.0000    0.0000    0.0000 C   0  0  0  0  0  0  0  0  0  0  0  0
    0.0000    0.0000    0.0000 C   0  0  0  0  0  0  0  0  0  0  0  0
    0.0000    0.0000    0.0000 C   0  0  0  0  0  0  0  0  0  0  0  0
    0.0000    0.0000    0.0000 C   0  0  0  0  0  0  0  0  0  0  0  0
    0.0000    0.0000    0.0000 C   0  0  0  0  0  0  0  0  0  0  0  0
    0.0000    0.0000    0.0000 C   0  0  0  0  0  0  0  0  0  0  0  0
    0.0000    0.0000    0.0000 C   0  0  0  0  0  0  0  0  0  0  0  0
    0.0000    0.0000    0.0000 N   0  0  0  0  0  0  0  0  0  0  0  0
    0.0000    0.0000    0.0000 C   0  0  0  0  0  0  0  0  0  0  0  0
    0.0000    0.0000    0.0000 C   0  0  0  0  0  0  0  0  0  0  0  0
    0.0000    0.0000    0.0000 C   0  0  0  0  0  0  0  0  0  0  0  0
    0.0000    0.0000    0.0000 C   0  0  0  0  0  0  0  0  0  0  0  0
    0.0000    0.0000    0.0000 C   0  0  0  0  0  0  0  0  0  0  0  0
    0.0000    0.0000    0.0000 C   0  0  0  0  0  0  0  0  0  0  0  0
    0.0000    0.0000    0.0000 C   0  0  0  0  0  0  0  0  0  0  0  0
    0.0000    0.0000    0.0000 Cl  0  0  0  0  0  0  0  0  0  0  0  0
    0.0000    0.0000    0.0000 C   0  0  0  0  0  0  0  0  0  0  0  0
    0.0000    0.0000    0.0000 C   0  0  0  0  0  0  0  0  0  0  0  0
    0.0000    0.0000    0.0000 C   0  0  0  0  0  0  0  0  0  0  0  0
    0.0000    0.0000    0.0000 C   0  0  0  0  0  0  0  0  0  0  0  0
    0.0000    0.0000    0.0000 C   0  0  0  0  0  0  0  0  0  0  0  0
    0.0000    0.0000    0.0000 O   0  0  0  0  0  0  0  0  0  0  0  0
    0.0000    0.0000    0.0000 C   0  0  0  0  0  0  0  0  0  0  0  0
    0.0000    0.0000    0.0000 N   0  0  0  0  0  0  0  0  0  0  0  0
    0.0000    0.0000    0.0000 C   0  0  0  0  0  0  0  0  0  0  0  0
    0.0000    0.0000    0.0000 O   0  0  0  0  0  0  0  0  0  0  0  0
    0.0000    0.0000    0.0000 S   0  0  0  0  0  0  0  0  0  0  0  0
    0.0000    0.0000    0.0000 C   0  0  0  0  0  0  0  0  0  0  0  0
  1  2  1  0
  2  3  1  0
  3  4  1  0
  4  5  1  0
  5  6  1  0
  6  7  1  0
  7  8  2  0
  8  9  1  0
  9 10  2  0
 10 11  1  0
 11 12  1  0
 12 13  1  0
 13 14  1  0
 14 15  1  0
 15 16  2  0
 16 17  1  0
 17 18  2  0
 18 19  1  0
 19 20  2  0
 20 21  1  0
 11 22  2  0
  2 23  1  0
 23 24  2  0
 24 25  1  0
 25 26  2  0
 26 27  1  0
 26 28  1  0
 28 29  1  0
 29 30  1  0
 30 31  2  0
 30 32  1  0
 32 33  1  0
 22  7  1  0
 20 15  1  0
 33 23  1  0
 33 28  2  0
M  END
>  <pIC50>  (330) 
6.6

>  <ChEMBL_ID>  (330) 
CHEMBL1945041

>  <document_journal>  (330) 
Bioorg. Med. Chem. Lett.

>  <bao_endpoint>  (330) 
BAO_0000190

>  <potential_duplicate>  (330) 
False

>  <uo_units>  (330) 
UO_0000065

>  <canonical_smiles>  (330) 
O[C@@H](CNCCc1cccc(CNCc2ccccc2Cl)c1)c3ccc(O)c4NC(=O)Sc34

>  <parent_molecule_chembl_id>  (330) 
CHEMBL1945041

>  <assay_type>  (330) 
B

>  <src_id>  (330) 
1

>  <ligand_efficiency>  (330) 
{u'le': u'0.27', u'bei': u'13.64', u'sei': u'5.55', u'lle': u'2.23'}

>  <standard_flag>  (330) 
True

>  <molecule_chembl_id>  (330) 
CHEMBL1945041

>  <target_organism>  (330) 
Homo sapiens

>  <standard_units>  (330) 
nM

>  <record_id>  (330) 
1573960

>  <document_chembl_id>  (330) 
CHEMBL1944599

>  <bao_format>  (330) 
BAO_0000357

>  <data_validity_description>  (330) 
None

>  <activity_id>  (330) 
8023042

>  <standard_type>  (330) 
IC50

>  <target_chembl_id>  (330) 
CHEMBL217

>  <data_validity_comment>  (330) 
None

>  <published_value>  (330) 
6.6

>  <document_year>  (330) 
2012

>  <target_pref_name>  (330) 
Dopamine D2 receptor

>  <assay_chembl_id>  (330) 
CHEMBL1947794

>  <standard_relation>  (330) 
=

>  <assay_description>  (330) 
Displacement of radiolabeled spiperone from dopamine D2 receptor

>  <published_relation>  (330) 
=

>  <standard_value>  (330) 
251.19

>  <qudt_units>  (330) 
http://www.openphacts.org/units/Nanomolar

>  <target_tax_id>  (330) 
9606

>  <bao_label>  (330) 
single protein format

>  <published_units>  (330) 
None

>  <pchembl_value>  (330) 
6.6

>  <published_type>  (330) 
pIC50

>  <activity_comment>  (330) 
None

$$$$

     RDKit          

 33 36  0  0  0  0  0  0  0  0999 V2000
    0.0000    0.0000    0.0000 O   0  0  0  0  0  0  0  0  0  0  0  0
    0.0000    0.0000    0.0000 C   0  0  0  0  0  0  0  0  0  0  0  0
    0.0000    0.0000    0.0000 C   0  0  0  0  0  0  0  0  0  0  0  0
    0.0000    0.0000    0.0000 N   0  0  0  0  0  0  0  0  0  0  0  0
    0.0000    0.0000    0.0000 C   0  0  0  0  0  0  0  0  0  0  0  0
    0.0000    0.0000    0.0000 C   0  0  0  0  0  0  0  0  0  0  0  0
    0.0000    0.0000    0.0000 C   0  0  0  0  0  0  0  0  0  0  0  0
    0.0000    0.0000    0.0000 C   0  0  0  0  0  0  0  0  0  0  0  0
    0.0000    0.0000    0.0000 C   0  0  0  0  0  0  0  0  0  0  0  0
    0.0000    0.0000    0.0000 C   0  0  0  0  0  0  0  0  0  0  0  0
    0.0000    0.0000    0.0000 C   0  0  0  0  0  0  0  0  0  0  0  0
    0.0000    0.0000    0.0000 C   0  0  0  0  0  0  0  0  0  0  0  0
    0.0000    0.0000    0.0000 N   0  0  0  0  0  0  0  0  0  0  0  0
    0.0000    0.0000    0.0000 C   0  0  0  0  0  0  0  0  0  0  0  0
    0.0000    0.0000    0.0000 C   0  0  0  0  0  0  0  0  0  0  0  0
    0.0000    0.0000    0.0000 C   0  0  0  0  0  0  0  0  0  0  0  0
    0.0000    0.0000    0.0000 C   0  0  0  0  0  0  0  0  0  0  0  0
    0.0000    0.0000    0.0000 C   0  0  0  0  0  0  0  0  0  0  0  0
    0.0000    0.0000    0.0000 C   0  0  0  0  0  0  0  0  0  0  0  0
    0.0000    0.0000    0.0000 C   0  0  0  0  0  0  0  0  0  0  0  0
    0.0000    0.0000    0.0000 F   0  0  0  0  0  0  0  0  0  0  0  0
    0.0000    0.0000    0.0000 C   0  0  0  0  0  0  0  0  0  0  0  0
    0.0000    0.0000    0.0000 C   0  0  0  0  0  0  0  0  0  0  0  0
    0.0000    0.0000    0.0000 C   0  0  0  0  0  0  0  0  0  0  0  0
    0.0000    0.0000    0.0000 C   0  0  0  0  0  0  0  0  0  0  0  0
    0.0000    0.0000    0.0000 C   0  0  0  0  0  0  0  0  0  0  0  0
    0.0000    0.0000    0.0000 O   0  0  0  0  0  0  0  0  0  0  0  0
    0.0000    0.0000    0.0000 C   0  0  0  0  0  0  0  0  0  0  0  0
    0.0000    0.0000    0.0000 N   0  0  0  0  0  0  0  0  0  0  0  0
    0.0000    0.0000    0.0000 C   0  0  0  0  0  0  0  0  0  0  0  0
    0.0000    0.0000    0.0000 O   0  0  0  0  0  0  0  0  0  0  0  0
    0.0000    0.0000    0.0000 S   0  0  0  0  0  0  0  0  0  0  0  0
    0.0000    0.0000    0.0000 C   0  0  0  0  0  0  0  0  0  0  0  0
  1  2  1  0
  2  3  1  0
  3  4  1  0
  4  5  1  0
  5  6  1  0
  6  7  1  0
  7  8  2  0
  8  9  1  0
  9 10  2  0
 10 11  1  0
 11 12  1  0
 12 13  1  0
 13 14  1  0
 14 15  1  0
 15 16  2  0
 16 17  1  0
 17 18  2  0
 18 19  1  0
 19 20  2  0
 20 21  1  0
 11 22  2  0
  2 23  1  0
 23 24  2  0
 24 25  1  0
 25 26  2  0
 26 27  1  0
 26 28  1  0
 28 29  1  0
 29 30  1  0
 30 31  2  0
 30 32  1  0
 32 33  1  0
 22  7  1  0
 20 15  1  0
 33 23  1  0
 33 28  2  0
M  END
>  <pIC50>  (331) 
6.2

>  <ChEMBL_ID>  (331) 
CHEMBL1945042

>  <document_journal>  (331) 
Bioorg. Med. Chem. Lett.

>  <bao_endpoint>  (331) 
BAO_0000190

>  <potential_duplicate>  (331) 
False

>  <uo_units>  (331) 
UO_0000065

>  <canonical_smiles>  (331) 
O[C@@H](CNCCc1cccc(CNCc2ccccc2F)c1)c3ccc(O)c4NC(=O)Sc34

>  <parent_molecule_chembl_id>  (331) 
CHEMBL1945042

>  <assay_type>  (331) 
B

>  <src_id>  (331) 
1

>  <ligand_efficiency>  (331) 
{u'le': u'0.26', u'bei': u'13.26', u'sei': u'5.21', u'lle': u'2.29'}

>  <standard_flag>  (331) 
True

>  <molecule_chembl_id>  (331) 
CHEMBL1945042

>  <target_organism>  (331) 
Homo sapiens

>  <standard_units>  (331) 
nM

>  <record_id>  (331) 
1573961

>  <document_chembl_id>  (331) 
CHEMBL1944599

>  <bao_format>  (331) 
BAO_0000357

>  <data_validity_description>  (331) 
None

>  <activity_id>  (331) 
8023043

>  <standard_type>  (331) 
IC50

>  <target_chembl_id>  (331) 
CHEMBL217

>  <data_validity_comment>  (331) 
None

>  <published_value>  (331) 
6.2

>  <document_year>  (331) 
2012

>  <target_pref_name>  (331) 
Dopamine D2 receptor

>  <assay_chembl_id>  (331) 
CHEMBL1947794

>  <standard_relation>  (331) 
=

>  <assay_description>  (331) 
Displacement of radiolabeled spiperone from dopamine D2 receptor

>  <published_relation>  (331) 
=

>  <standard_value>  (331) 
630.96

>  <qudt_units>  (331) 
http://www.openphacts.org/units/Nanomolar

>  <target_tax_id>  (331) 
9606

>  <bao_label>  (331) 
single protein format

>  <published_units>  (331) 
None

>  <pchembl_value>  (331) 
6.2

>  <published_type>  (331) 
pIC50

>  <activity_comment>  (331) 
None

$$$$

     RDKit          

 32 35  0  0  0  0  0  0  0  0999 V2000
    0.0000    0.0000    0.0000 O   0  0  0  0  0  0  0  0  0  0  0  0
    0.0000    0.0000    0.0000 C   0  0  0  0  0  0  0  0  0  0  0  0
    0.0000    0.0000    0.0000 C   0  0  0  0  0  0  0  0  0  0  0  0
    0.0000    0.0000    0.0000 N   0  0  0  0  0  0  0  0  0  0  0  0
    0.0000    0.0000    0.0000 C   0  0  0  0  0  0  0  0  0  0  0  0
    0.0000    0.0000    0.0000 C   0  0  0  0  0  0  0  0  0  0  0  0
    0.0000    0.0000    0.0000 C   0  0  0  0  0  0  0  0  0  0  0  0
    0.0000    0.0000    0.0000 C   0  0  0  0  0  0  0  0  0  0  0  0
    0.0000    0.0000    0.0000 C   0  0  0  0  0  0  0  0  0  0  0  0
    0.0000    0.0000    0.0000 C   0  0  0  0  0  0  0  0  0  0  0  0
    0.0000    0.0000    0.0000 C   0  0  0  0  0  0  0  0  0  0  0  0
    0.0000    0.0000    0.0000 C   0  0  0  0  0  0  0  0  0  0  0  0
    0.0000    0.0000    0.0000 N   0  0  0  0  0  0  0  0  0  0  0  0
    0.0000    0.0000    0.0000 C   0  0  0  0  0  0  0  0  0  0  0  0
    0.0000    0.0000    0.0000 C   0  0  0  0  0  0  0  0  0  0  0  0
    0.0000    0.0000    0.0000 C   0  0  0  0  0  0  0  0  0  0  0  0
    0.0000    0.0000    0.0000 C   0  0  0  0  0  0  0  0  0  0  0  0
    0.0000    0.0000    0.0000 C   0  0  0  0  0  0  0  0  0  0  0  0
    0.0000    0.0000    0.0000 C   0  0  0  0  0  0  0  0  0  0  0  0
    0.0000    0.0000    0.0000 N   0  0  0  0  0  0  0  0  0  0  0  0
    0.0000    0.0000    0.0000 C   0  0  0  0  0  0  0  0  0  0  0  0
    0.0000    0.0000    0.0000 C   0  0  0  0  0  0  0  0  0  0  0  0
    0.0000    0.0000    0.0000 C   0  0  0  0  0  0  0  0  0  0  0  0
    0.0000    0.0000    0.0000 C   0  0  0  0  0  0  0  0  0  0  0  0
    0.0000    0.0000    0.0000 C   0  0  0  0  0  0  0  0  0  0  0  0
    0.0000    0.0000    0.0000 O   0  0  0  0  0  0  0  0  0  0  0  0
    0.0000    0.0000    0.0000 C   0  0  0  0  0  0  0  0  0  0  0  0
    0.0000    0.0000    0.0000 N   0  0  0  0  0  0  0  0  0  0  0  0
    0.0000    0.0000    0.0000 C   0  0  0  0  0  0  0  0  0  0  0  0
    0.0000    0.0000    0.0000 O   0  0  0  0  0  0  0  0  0  0  0  0
    0.0000    0.0000    0.0000 S   0  0  0  0  0  0  0  0  0  0  0  0
    0.0000    0.0000    0.0000 C   0  0  0  0  0  0  0  0  0  0  0  0
  1  2  1  0
  2  3  1  0
  3  4  1  0
  4  5  1  0
  5  6  1  0
  6  7  1  0
  7  8  2  0
  8  9  1  0
  9 10  2  0
 10 11  1  0
 11 12  1  0
 12 13  1  0
 13 14  1  0
 14 15  1  0
 15 16  2  0
 16 17  1  0
 17 18  2  0
 18 19  1  0
 19 20  2  0
 11 21  2  0
  2 22  1  0
 22 23  2  0
 23 24  1  0
 24 25  2  0
 25 26  1  0
 25 27  1  0
 27 28  1  0
 28 29  1  0
 29 30  2  0
 29 31  1  0
 31 32  1  0
 21  7  1  0
 20 15  1  0
 32 22  1  0
 32 27  2  0
M  END
>  <pIC50>  (332) 
5.3

>  <ChEMBL_ID>  (332) 
CHEMBL1945043

>  <document_journal>  (332) 
Bioorg. Med. Chem. Lett.

>  <bao_endpoint>  (332) 
BAO_0000190

>  <potential_duplicate>  (332) 
False

>  <uo_units>  (332) 
UO_0000065

>  <canonical_smiles>  (332) 
O[C@@H](CNCCc1cccc(CNCc2ccccn2)c1)c3ccc(O)c4NC(=O)Sc34

>  <parent_molecule_chembl_id>  (332) 
CHEMBL1945043

>  <assay_type>  (332) 
B

>  <src_id>  (332) 
1

>  <ligand_efficiency>  (332) 
{u'le': u'0.23', u'bei': u'11.76', u'sei': u'4.02', u'lle': u'2.53'}

>  <standard_flag>  (332) 
True

>  <molecule_chembl_id>  (332) 
CHEMBL1945043

>  <target_organism>  (332) 
Homo sapiens

>  <standard_units>  (332) 
nM

>  <record_id>  (332) 
1573962

>  <document_chembl_id>  (332) 
CHEMBL1944599

>  <bao_format>  (332) 
BAO_0000357

>  <data_validity_description>  (332) 
None

>  <activity_id>  (332) 
8023044

>  <standard_type>  (332) 
IC50

>  <target_chembl_id>  (332) 
CHEMBL217

>  <data_validity_comment>  (332) 
None

>  <published_value>  (332) 
5.3

>  <document_year>  (332) 
2012

>  <target_pref_name>  (332) 
Dopamine D2 receptor

>  <assay_chembl_id>  (332) 
CHEMBL1947794

>  <standard_relation>  (332) 
=

>  <assay_description>  (332) 
Displacement of radiolabeled spiperone from dopamine D2 receptor

>  <published_relation>  (332) 
=

>  <standard_value>  (332) 
5011.87

>  <qudt_units>  (332) 
http://www.openphacts.org/units/Nanomolar

>  <target_tax_id>  (332) 
9606

>  <bao_label>  (332) 
single protein format

>  <published_units>  (332) 
None

>  <pchembl_value>  (332) 
5.3

>  <published_type>  (332) 
pIC50

>  <activity_comment>  (332) 
None

$$$$

     RDKit          

 34 37  0  0  0  0  0  0  0  0999 V2000
    0.0000    0.0000    0.0000 C   0  0  0  0  0  0  0  0  0  0  0  0
    0.0000    0.0000    0.0000 O   0  0  0  0  0  0  0  0  0  0  0  0
    0.0000    0.0000    0.0000 C   0  0  0  0  0  0  0  0  0  0  0  0
    0.0000    0.0000    0.0000 C   0  0  0  0  0  0  0  0  0  0  0  0
    0.0000    0.0000    0.0000 C   0  0  0  0  0  0  0  0  0  0  0  0
    0.0000    0.0000    0.0000 C   0  0  0  0  0  0  0  0  0  0  0  0
    0.0000    0.0000    0.0000 C   0  0  0  0  0  0  0  0  0  0  0  0
    0.0000    0.0000    0.0000 C   0  0  0  0  0  0  0  0  0  0  0  0
    0.0000    0.0000    0.0000 N   0  0  0  0  0  0  0  0  0  0  0  0
    0.0000    0.0000    0.0000 C   0  0  0  0  0  0  0  0  0  0  0  0
    0.0000    0.0000    0.0000 C   0  0  0  0  0  0  0  0  0  0  0  0
    0.0000    0.0000    0.0000 C   0  0  0  0  0  0  0  0  0  0  0  0
    0.0000    0.0000    0.0000 C   0  0  0  0  0  0  0  0  0  0  0  0
    0.0000    0.0000    0.0000 C   0  0  0  0  0  0  0  0  0  0  0  0
    0.0000    0.0000    0.0000 C   0  0  0  0  0  0  0  0  0  0  0  0
    0.0000    0.0000    0.0000 C   0  0  0  0  0  0  0  0  0  0  0  0
    0.0000    0.0000    0.0000 C   0  0  0  0  0  0  0  0  0  0  0  0
    0.0000    0.0000    0.0000 N   0  0  0  0  0  0  0  0  0  0  0  0
    0.0000    0.0000    0.0000 C   0  0  0  0  0  0  0  0  0  0  0  0
    0.0000    0.0000    0.0000 C   0  0  0  0  0  0  0  0  0  0  0  0
    0.0000    0.0000    0.0000 O   0  0  0  0  0  0  0  0  0  0  0  0
    0.0000    0.0000    0.0000 C   0  0  0  0  0  0  0  0  0  0  0  0
    0.0000    0.0000    0.0000 C   0  0  0  0  0  0  0  0  0  0  0  0
    0.0000    0.0000    0.0000 C   0  0  0  0  0  0  0  0  0  0  0  0
    0.0000    0.0000    0.0000 C   0  0  0  0  0  0  0  0  0  0  0  0
    0.0000    0.0000    0.0000 O   0  0  0  0  0  0  0  0  0  0  0  0
    0.0000    0.0000    0.0000 C   0  0  0  0  0  0  0  0  0  0  0  0
    0.0000    0.0000    0.0000 N   0  0  0  0  0  0  0  0  0  0  0  0
    0.0000    0.0000    0.0000 C   0  0  0  0  0  0  0  0  0  0  0  0
    0.0000    0.0000    0.0000 O   0  0  0  0  0  0  0  0  0  0  0  0
    0.0000    0.0000    0.0000 S   0  0  0  0  0  0  0  0  0  0  0  0
    0.0000    0.0000    0.0000 C   0  0  0  0  0  0  0  0  0  0  0  0
    0.0000    0.0000    0.0000 C   0  0  0  0  0  0  0  0  0  0  0  0
    0.0000    0.0000    0.0000 C   0  0  0  0  0  0  0  0  0  0  0  0
  1  2  1  0
  2  3  1  0
  3  4  2  0
  4  5  1  0
  5  6  2  0
  6  7  1  0
  7  8  1  0
  8  9  1  0
  9 10  1  0
 10 11  1  0
 11 12  2  0
 12 13  1  0
 13 14  2  0
 14 15  1  0
 15 16  1  0
 16 17  1  0
 17 18  1  0
 18 19  1  0
 19 20  1  0
 20 21  1  0
 20 22  1  0
 22 23  2  0
 23 24  1  0
 24 25  2  0
 25 26  1  0
 25 27  1  0
 27 28  1  0
 28 29  1  0
 29 30  2  0
 29 31  1  0
 31 32  1  0
 15 33  2  0
  7 34  2  0
 34  3  1  0
 33 11  1  0
 32 22  1  0
 32 27  2  0
M  END
>  <pIC50>  (333) 
6.1

>  <ChEMBL_ID>  (333) 
CHEMBL1945044

>  <document_journal>  (333) 
Bioorg. Med. Chem. Lett.

>  <bao_endpoint>  (333) 
BAO_0000190

>  <potential_duplicate>  (333) 
False

>  <uo_units>  (333) 
UO_0000065

>  <canonical_smiles>  (333) 
COc1cccc(CNCc2cccc(CCNC[C@H](O)c3ccc(O)c4NC(=O)Sc34)c2)c1

>  <parent_molecule_chembl_id>  (333) 
CHEMBL1945044

>  <assay_type>  (333) 
B

>  <src_id>  (333) 
1

>  <ligand_efficiency>  (333) 
{u'le': u'0.25', u'bei': u'12.72', u'sei': u'4.76', u'lle': u'2.41'}

>  <standard_flag>  (333) 
True

>  <molecule_chembl_id>  (333) 
CHEMBL1945044

>  <target_organism>  (333) 
Homo sapiens

>  <standard_units>  (333) 
nM

>  <record_id>  (333) 
1573963

>  <document_chembl_id>  (333) 
CHEMBL1944599

>  <bao_format>  (333) 
BAO_0000357

>  <data_validity_description>  (333) 
None

>  <activity_id>  (333) 
8023045

>  <standard_type>  (333) 
IC50

>  <target_chembl_id>  (333) 
CHEMBL217

>  <data_validity_comment>  (333) 
None

>  <published_value>  (333) 
6.1

>  <document_year>  (333) 
2012

>  <target_pref_name>  (333) 
Dopamine D2 receptor

>  <assay_chembl_id>  (333) 
CHEMBL1947794

>  <standard_relation>  (333) 
=

>  <assay_description>  (333) 
Displacement of radiolabeled spiperone from dopamine D2 receptor

>  <published_relation>  (333) 
=

>  <standard_value>  (333) 
794.33

>  <qudt_units>  (333) 
http://www.openphacts.org/units/Nanomolar

>  <target_tax_id>  (333) 
9606

>  <bao_label>  (333) 
single protein format

>  <published_units>  (333) 
None

>  <pchembl_value>  (333) 
6.1

>  <published_type>  (333) 
pIC50

>  <activity_comment>  (333) 
None

$$$$

     RDKit          

 34 37  0  0  0  0  0  0  0  0999 V2000
    0.0000    0.0000    0.0000 C   0  0  0  0  0  0  0  0  0  0  0  0
    0.0000    0.0000    0.0000 O   0  0  0  0  0  0  0  0  0  0  0  0
    0.0000    0.0000    0.0000 C   0  0  0  0  0  0  0  0  0  0  0  0
    0.0000    0.0000    0.0000 C   0  0  0  0  0  0  0  0  0  0  0  0
    0.0000    0.0000    0.0000 C   0  0  0  0  0  0  0  0  0  0  0  0
    0.0000    0.0000    0.0000 C   0  0  0  0  0  0  0  0  0  0  0  0
    0.0000    0.0000    0.0000 C   0  0  0  0  0  0  0  0  0  0  0  0
    0.0000    0.0000    0.0000 N   0  0  0  0  0  0  0  0  0  0  0  0
    0.0000    0.0000    0.0000 C   0  0  0  0  0  0  0  0  0  0  0  0
    0.0000    0.0000    0.0000 C   0  0  0  0  0  0  0  0  0  0  0  0
    0.0000    0.0000    0.0000 C   0  0  0  0  0  0  0  0  0  0  0  0
    0.0000    0.0000    0.0000 C   0  0  0  0  0  0  0  0  0  0  0  0
    0.0000    0.0000    0.0000 C   0  0  0  0  0  0  0  0  0  0  0  0
    0.0000    0.0000    0.0000 C   0  0  0  0  0  0  0  0  0  0  0  0
    0.0000    0.0000    0.0000 C   0  0  0  0  0  0  0  0  0  0  0  0
    0.0000    0.0000    0.0000 C   0  0  0  0  0  0  0  0  0  0  0  0
    0.0000    0.0000    0.0000 N   0  0  0  0  0  0  0  0  0  0  0  0
    0.0000    0.0000    0.0000 C   0  0  0  0  0  0  0  0  0  0  0  0
    0.0000    0.0000    0.0000 C   0  0  0  0  0  0  0  0  0  0  0  0
    0.0000    0.0000    0.0000 O   0  0  0  0  0  0  0  0  0  0  0  0
    0.0000    0.0000    0.0000 C   0  0  0  0  0  0  0  0  0  0  0  0
    0.0000    0.0000    0.0000 C   0  0  0  0  0  0  0  0  0  0  0  0
    0.0000    0.0000    0.0000 C   0  0  0  0  0  0  0  0  0  0  0  0
    0.0000    0.0000    0.0000 C   0  0  0  0  0  0  0  0  0  0  0  0
    0.0000    0.0000    0.0000 O   0  0  0  0  0  0  0  0  0  0  0  0
    0.0000    0.0000    0.0000 C   0  0  0  0  0  0  0  0  0  0  0  0
    0.0000    0.0000    0.0000 N   0  0  0  0  0  0  0  0  0  0  0  0
    0.0000    0.0000    0.0000 C   0  0  0  0  0  0  0  0  0  0  0  0
    0.0000    0.0000    0.0000 O   0  0  0  0  0  0  0  0  0  0  0  0
    0.0000    0.0000    0.0000 S   0  0  0  0  0  0  0  0  0  0  0  0
    0.0000    0.0000    0.0000 C   0  0  0  0  0  0  0  0  0  0  0  0
    0.0000    0.0000    0.0000 C   0  0  0  0  0  0  0  0  0  0  0  0
    0.0000    0.0000    0.0000 C   0  0  0  0  0  0  0  0  0  0  0  0
    0.0000    0.0000    0.0000 C   0  0  0  0  0  0  0  0  0  0  0  0
  1  2  1  0
  2  3  1  0
  3  4  2  0
  4  5  1  0
  5  6  2  0
  6  7  1  0
  7  8  1  0
  8  9  1  0
  9 10  1  0
 10 11  2  0
 11 12  1  0
 12 13  2  0
 13 14  1  0
 14 15  1  0
 15 16  1  0
 16 17  1  0
 17 18  1  0
 18 19  1  0
 19 20  1  0
 19 21  1  0
 21 22  2  0
 22 23  1  0
 23 24  2  0
 24 25  1  0
 24 26  1  0
 26 27  1  0
 27 28  1  0
 28 29  2  0
 28 30  1  0
 30 31  1  0
 14 32  2  0
  6 33  1  0
 33 34  2  0
 34  3  1  0
 32 10  1  0
 31 21  1  0
 31 26  2  0
M  END
>  <pIC50>  (334) 
6.1

>  <ChEMBL_ID>  (334) 
CHEMBL1945289

>  <document_journal>  (334) 
Bioorg. Med. Chem. Lett.

>  <bao_endpoint>  (334) 
BAO_0000190

>  <potential_duplicate>  (334) 
False

>  <uo_units>  (334) 
UO_0000065

>  <canonical_smiles>  (334) 
COc1ccc(CNCc2cccc(CCNC[C@H](O)c3ccc(O)c4NC(=O)Sc34)c2)cc1

>  <parent_molecule_chembl_id>  (334) 
CHEMBL1945289

>  <assay_type>  (334) 
B

>  <src_id>  (334) 
1

>  <ligand_efficiency>  (334) 
{u'le': u'0.25', u'bei': u'12.72', u'sei': u'4.76', u'lle': u'2.41'}

>  <standard_flag>  (334) 
True

>  <molecule_chembl_id>  (334) 
CHEMBL1945289

>  <target_organism>  (334) 
Homo sapiens

>  <standard_units>  (334) 
nM

>  <record_id>  (334) 
1574341

>  <document_chembl_id>  (334) 
CHEMBL1944599

>  <bao_format>  (334) 
BAO_0000357

>  <data_validity_description>  (334) 
None

>  <activity_id>  (334) 
8023046

>  <standard_type>  (334) 
IC50

>  <target_chembl_id>  (334) 
CHEMBL217

>  <data_validity_comment>  (334) 
None

>  <published_value>  (334) 
6.1

>  <document_year>  (334) 
2012

>  <target_pref_name>  (334) 
Dopamine D2 receptor

>  <assay_chembl_id>  (334) 
CHEMBL1947794

>  <standard_relation>  (334) 
=

>  <assay_description>  (334) 
Displacement of radiolabeled spiperone from dopamine D2 receptor

>  <published_relation>  (334) 
=

>  <standard_value>  (334) 
794.33

>  <qudt_units>  (334) 
http://www.openphacts.org/units/Nanomolar

>  <target_tax_id>  (334) 
9606

>  <bao_label>  (334) 
single protein format

>  <published_units>  (334) 
None

>  <pchembl_value>  (334) 
6.1

>  <published_type>  (334) 
pIC50

>  <activity_comment>  (334) 
None

$$$$

     RDKit          

 35 38  0  0  0  0  0  0  0  0999 V2000
    0.0000    0.0000    0.0000 C   0  0  0  0  0  0  0  0  0  0  0  0
    0.0000    0.0000    0.0000 C   0  0  0  0  0  0  0  0  0  0  0  0
    0.0000    0.0000    0.0000 O   0  0  0  0  0  0  0  0  0  0  0  0
    0.0000    0.0000    0.0000 C   0  0  0  0  0  0  0  0  0  0  0  0
    0.0000    0.0000    0.0000 C   0  0  0  0  0  0  0  0  0  0  0  0
    0.0000    0.0000    0.0000 C   0  0  0  0  0  0  0  0  0  0  0  0
    0.0000    0.0000    0.0000 C   0  0  0  0  0  0  0  0  0  0  0  0
    0.0000    0.0000    0.0000 C   0  0  0  0  0  0  0  0  0  0  0  0
    0.0000    0.0000    0.0000 C   0  0  0  0  0  0  0  0  0  0  0  0
    0.0000    0.0000    0.0000 C   0  0  0  0  0  0  0  0  0  0  0  0
    0.0000    0.0000    0.0000 N   0  0  0  0  0  0  0  0  0  0  0  0
    0.0000    0.0000    0.0000 C   0  0  0  0  0  0  0  0  0  0  0  0
    0.0000    0.0000    0.0000 C   0  0  0  0  0  0  0  0  0  0  0  0
    0.0000    0.0000    0.0000 C   0  0  0  0  0  0  0  0  0  0  0  0
    0.0000    0.0000    0.0000 C   0  0  0  0  0  0  0  0  0  0  0  0
    0.0000    0.0000    0.0000 C   0  0  0  0  0  0  0  0  0  0  0  0
    0.0000    0.0000    0.0000 C   0  0  0  0  0  0  0  0  0  0  0  0
    0.0000    0.0000    0.0000 C   0  0  0  0  0  0  0  0  0  0  0  0
    0.0000    0.0000    0.0000 C   0  0  0  0  0  0  0  0  0  0  0  0
    0.0000    0.0000    0.0000 N   0  0  0  0  0  0  0  0  0  0  0  0
    0.0000    0.0000    0.0000 C   0  0  0  0  0  0  0  0  0  0  0  0
    0.0000    0.0000    0.0000 C   0  0  0  0  0  0  0  0  0  0  0  0
    0.0000    0.0000    0.0000 O   0  0  0  0  0  0  0  0  0  0  0  0
    0.0000    0.0000    0.0000 C   0  0  0  0  0  0  0  0  0  0  0  0
    0.0000    0.0000    0.0000 C   0  0  0  0  0  0  0  0  0  0  0  0
    0.0000    0.0000    0.0000 C   0  0  0  0  0  0  0  0  0  0  0  0
    0.0000    0.0000    0.0000 C   0  0  0  0  0  0  0  0  0  0  0  0
    0.0000    0.0000    0.0000 O   0  0  0  0  0  0  0  0  0  0  0  0
    0.0000    0.0000    0.0000 C   0  0  0  0  0  0  0  0  0  0  0  0
    0.0000    0.0000    0.0000 N   0  0  0  0  0  0  0  0  0  0  0  0
    0.0000    0.0000    0.0000 C   0  0  0  0  0  0  0  0  0  0  0  0
    0.0000    0.0000    0.0000 O   0  0  0  0  0  0  0  0  0  0  0  0
    0.0000    0.0000    0.0000 S   0  0  0  0  0  0  0  0  0  0  0  0
    0.0000    0.0000    0.0000 C   0  0  0  0  0  0  0  0  0  0  0  0
    0.0000    0.0000    0.0000 C   0  0  0  0  0  0  0  0  0  0  0  0
  1  2  1  0
  2  3  1  0
  3  4  1  0
  4  5  2  0
  5  6  1  0
  6  7  2  0
  7  8  1  0
  8  9  2  0
  9 10  1  0
 10 11  1  0
 11 12  1  0
 12 13  1  0
 13 14  2  0
 14 15  1  0
 15 16  2  0
 16 17  1  0
 17 18  1  0
 18 19  1  0
 19 20  1  0
 20 21  1  0
 21 22  1  0
 22 23  1  0
 22 24  1  0
 24 25  2  0
 25 26  1  0
 26 27  2  0
 27 28  1  0
 27 29  1  0
 29 30  1  0
 30 31  1  0
 31 32  2  0
 31 33  1  0
 33 34  1  0
 17 35  2  0
  9  4  1  0
 35 13  1  0
 34 24  1  0
 34 29  2  0
M  END
>  <pIC50>  (335) 
5.9

>  <ChEMBL_ID>  (335) 
CHEMBL1945290

>  <document_journal>  (335) 
Bioorg. Med. Chem. Lett.

>  <bao_endpoint>  (335) 
BAO_0000190

>  <potential_duplicate>  (335) 
False

>  <uo_units>  (335) 
UO_0000065

>  <canonical_smiles>  (335) 
CCOc1ccccc1CNCc2cccc(CCNC[C@H](O)c3ccc(O)c4NC(=O)Sc34)c2

>  <parent_molecule_chembl_id>  (335) 
CHEMBL1945290

>  <assay_type>  (335) 
B

>  <src_id>  (335) 
1

>  <ligand_efficiency>  (335) 
{u'le': u'0.23', u'bei': u'11.95', u'sei': u'4.6', u'lle': u'1.86'}

>  <standard_flag>  (335) 
True

>  <molecule_chembl_id>  (335) 
CHEMBL1945290

>  <target_organism>  (335) 
Homo sapiens

>  <standard_units>  (335) 
nM

>  <record_id>  (335) 
1574342

>  <document_chembl_id>  (335) 
CHEMBL1944599

>  <bao_format>  (335) 
BAO_0000357

>  <data_validity_description>  (335) 
None

>  <activity_id>  (335) 
8023047

>  <standard_type>  (335) 
IC50

>  <target_chembl_id>  (335) 
CHEMBL217

>  <data_validity_comment>  (335) 
None

>  <published_value>  (335) 
5.9

>  <document_year>  (335) 
2012

>  <target_pref_name>  (335) 
Dopamine D2 receptor

>  <assay_chembl_id>  (335) 
CHEMBL1947794

>  <standard_relation>  (335) 
=

>  <assay_description>  (335) 
Displacement of radiolabeled spiperone from dopamine D2 receptor

>  <published_relation>  (335) 
=

>  <standard_value>  (335) 
1258.93

>  <qudt_units>  (335) 
http://www.openphacts.org/units/Nanomolar

>  <target_tax_id>  (335) 
9606

>  <bao_label>  (335) 
single protein format

>  <published_units>  (335) 
None

>  <pchembl_value>  (335) 
5.9

>  <published_type>  (335) 
pIC50

>  <activity_comment>  (335) 
None

$$$$

     RDKit          

 35 38  0  0  0  0  0  0  0  0999 V2000
    0.0000    0.0000    0.0000 C   0  0  0  0  0  0  0  0  0  0  0  0
    0.0000    0.0000    0.0000 O   0  0  0  0  0  0  0  0  0  0  0  0
    0.0000    0.0000    0.0000 C   0  0  0  0  0  0  0  0  0  0  0  0
    0.0000    0.0000    0.0000 C   0  0  0  0  0  0  0  0  0  0  0  0
    0.0000    0.0000    0.0000 C   0  0  0  0  0  0  0  0  0  0  0  0
    0.0000    0.0000    0.0000 C   0  0  0  0  0  0  0  0  0  0  0  0
    0.0000    0.0000    0.0000 C   0  0  0  0  0  0  0  0  0  0  0  0
    0.0000    0.0000    0.0000 C   0  0  0  0  0  0  0  0  0  0  0  0
    0.0000    0.0000    0.0000 C   0  0  0  0  0  0  0  0  0  0  0  0
    0.0000    0.0000    0.0000 N   0  0  0  0  0  0  0  0  0  0  0  0
    0.0000    0.0000    0.0000 C   0  0  0  0  0  0  0  0  0  0  0  0
    0.0000    0.0000    0.0000 C   0  0  0  0  0  0  0  0  0  0  0  0
    0.0000    0.0000    0.0000 C   0  0  0  0  0  0  0  0  0  0  0  0
    0.0000    0.0000    0.0000 C   0  0  0  0  0  0  0  0  0  0  0  0
    0.0000    0.0000    0.0000 C   0  0  0  0  0  0  0  0  0  0  0  0
    0.0000    0.0000    0.0000 C   0  0  0  0  0  0  0  0  0  0  0  0
    0.0000    0.0000    0.0000 C   0  0  0  0  0  0  0  0  0  0  0  0
    0.0000    0.0000    0.0000 C   0  0  0  0  0  0  0  0  0  0  0  0
    0.0000    0.0000    0.0000 C   0  0  0  0  0  0  0  0  0  0  0  0
    0.0000    0.0000    0.0000 N   0  0  0  0  0  0  0  0  0  0  0  0
    0.0000    0.0000    0.0000 C   0  0  0  0  0  0  0  0  0  0  0  0
    0.0000    0.0000    0.0000 C   0  0  0  0  0  0  0  0  0  0  0  0
    0.0000    0.0000    0.0000 O   0  0  0  0  0  0  0  0  0  0  0  0
    0.0000    0.0000    0.0000 C   0  0  0  0  0  0  0  0  0  0  0  0
    0.0000    0.0000    0.0000 C   0  0  0  0  0  0  0  0  0  0  0  0
    0.0000    0.0000    0.0000 C   0  0  0  0  0  0  0  0  0  0  0  0
    0.0000    0.0000    0.0000 C   0  0  0  0  0  0  0  0  0  0  0  0
    0.0000    0.0000    0.0000 O   0  0  0  0  0  0  0  0  0  0  0  0
    0.0000    0.0000    0.0000 C   0  0  0  0  0  0  0  0  0  0  0  0
    0.0000    0.0000    0.0000 N   0  0  0  0  0  0  0  0  0  0  0  0
    0.0000    0.0000    0.0000 C   0  0  0  0  0  0  0  0  0  0  0  0
    0.0000    0.0000    0.0000 O   0  0  0  0  0  0  0  0  0  0  0  0
    0.0000    0.0000    0.0000 S   0  0  0  0  0  0  0  0  0  0  0  0
    0.0000    0.0000    0.0000 C   0  0  0  0  0  0  0  0  0  0  0  0
    0.0000    0.0000    0.0000 C   0  0  0  0  0  0  0  0  0  0  0  0
  1  2  1  0
  2  3  1  0
  3  4  2  0
  4  5  1  0
  5  6  2  0
  6  7  1  0
  7  8  2  0
  8  9  1  0
  9 10  1  0
 10 11  1  0
 10 12  1  0
 12 13  1  0
 13 14  2  0
 14 15  1  0
 15 16  2  0
 16 17  1  0
 17 18  1  0
 18 19  1  0
 19 20  1  0
 20 21  1  0
 21 22  1  0
 22 23  1  0
 22 24  1  0
 24 25  2  0
 25 26  1  0
 26 27  2  0
 27 28  1  0
 27 29  1  0
 29 30  1  0
 30 31  1  0
 31 32  2  0
 31 33  1  0
 33 34  1  0
 17 35  2  0
  8  3  1  0
 35 13  1  0
 34 24  1  0
 34 29  2  0
M  END
>  <pIC50>  (336) 
6.0

>  <ChEMBL_ID>  (336) 
CHEMBL1945291

>  <document_journal>  (336) 
Bioorg. Med. Chem. Lett.

>  <bao_endpoint>  (336) 
BAO_0000190

>  <potential_duplicate>  (336) 
False

>  <uo_units>  (336) 
UO_0000065

>  <canonical_smiles>  (336) 
COc1ccccc1CN(C)Cc2cccc(CCNC[C@H](O)c3ccc(O)c4NC(=O)Sc34)c2

>  <parent_molecule_chembl_id>  (336) 
CHEMBL1945291

>  <assay_type>  (336) 
B

>  <src_id>  (336) 
1

>  <ligand_efficiency>  (336) 
{u'le': u'0.23', u'bei': u'12.16', u'sei': u'5.03', u'lle': u'1.77'}

>  <standard_flag>  (336) 
True

>  <molecule_chembl_id>  (336) 
CHEMBL1945291

>  <target_organism>  (336) 
Homo sapiens

>  <standard_units>  (336) 
nM

>  <record_id>  (336) 
1574343

>  <document_chembl_id>  (336) 
CHEMBL1944599

>  <bao_format>  (336) 
BAO_0000357

>  <data_validity_description>  (336) 
None

>  <activity_id>  (336) 
8023048

>  <standard_type>  (336) 
IC50

>  <target_chembl_id>  (336) 
CHEMBL217

>  <data_validity_comment>  (336) 
None

>  <published_value>  (336) 
6

>  <document_year>  (336) 
2012

>  <target_pref_name>  (336) 
Dopamine D2 receptor

>  <assay_chembl_id>  (336) 
CHEMBL1947794

>  <standard_relation>  (336) 
=

>  <assay_description>  (336) 
Displacement of radiolabeled spiperone from dopamine D2 receptor

>  <published_relation>  (336) 
=

>  <standard_value>  (336) 
1000

>  <qudt_units>  (336) 
http://www.openphacts.org/units/Nanomolar

>  <target_tax_id>  (336) 
9606

>  <bao_label>  (336) 
single protein format

>  <published_units>  (336) 
None

>  <pchembl_value>  (336) 
6

>  <published_type>  (336) 
pIC50

>  <activity_comment>  (336) 
None

$$$$

     RDKit          

 29 31  0  0  0  0  0  0  0  0999 V2000
    0.0000    0.0000    0.0000 C   0  0  0  0  0  0  0  0  0  0  0  0
    0.0000    0.0000    0.0000 O   0  0  0  0  0  0  0  0  0  0  0  0
    0.0000    0.0000    0.0000 C   0  0  0  0  0  0  0  0  0  0  0  0
    0.0000    0.0000    0.0000 C   0  0  0  0  0  0  0  0  0  0  0  0
    0.0000    0.0000    0.0000 N   0  0  0  0  0  0  0  0  0  0  0  0
    0.0000    0.0000    0.0000 C   0  0  0  0  0  0  0  0  0  0  0  0
    0.0000    0.0000    0.0000 C   0  0  0  0  0  0  0  0  0  0  0  0
    0.0000    0.0000    0.0000 C   0  0  0  0  0  0  0  0  0  0  0  0
    0.0000    0.0000    0.0000 C   0  0  0  0  0  0  0  0  0  0  0  0
    0.0000    0.0000    0.0000 C   0  0  0  0  0  0  0  0  0  0  0  0
    0.0000    0.0000    0.0000 C   0  0  0  0  0  0  0  0  0  0  0  0
    0.0000    0.0000    0.0000 C   0  0  0  0  0  0  0  0  0  0  0  0
    0.0000    0.0000    0.0000 C   0  0  0  0  0  0  0  0  0  0  0  0
    0.0000    0.0000    0.0000 N   0  0  0  0  0  0  0  0  0  0  0  0
    0.0000    0.0000    0.0000 C   0  0  0  0  0  0  0  0  0  0  0  0
    0.0000    0.0000    0.0000 C   0  0  0  0  0  0  0  0  0  0  0  0
    0.0000    0.0000    0.0000 O   0  0  0  0  0  0  0  0  0  0  0  0
    0.0000    0.0000    0.0000 C   0  0  0  0  0  0  0  0  0  0  0  0
    0.0000    0.0000    0.0000 C   0  0  0  0  0  0  0  0  0  0  0  0
    0.0000    0.0000    0.0000 C   0  0  0  0  0  0  0  0  0  0  0  0
    0.0000    0.0000    0.0000 C   0  0  0  0  0  0  0  0  0  0  0  0
    0.0000    0.0000    0.0000 O   0  0  0  0  0  0  0  0  0  0  0  0
    0.0000    0.0000    0.0000 C   0  0  0  0  0  0  0  0  0  0  0  0
    0.0000    0.0000    0.0000 N   0  0  0  0  0  0  0  0  0  0  0  0
    0.0000    0.0000    0.0000 C   0  0  0  0  0  0  0  0  0  0  0  0
    0.0000    0.0000    0.0000 O   0  0  0  0  0  0  0  0  0  0  0  0
    0.0000    0.0000    0.0000 S   0  0  0  0  0  0  0  0  0  0  0  0
    0.0000    0.0000    0.0000 C   0  0  0  0  0  0  0  0  0  0  0  0
    0.0000    0.0000    0.0000 C   0  0  0  0  0  0  0  0  0  0  0  0
  1  2  1  0
  2  3  1  0
  3  4  1  0
  4  5  1  0
  5  6  1  0
  6  7  1  0
  7  8  2  0
  8  9  1  0
  9 10  2  0
 10 11  1  0
 11 12  1  0
 12 13  1  0
 13 14  1  0
 14 15  1  0
 15 16  1  0
 16 17  1  0
 16 18  1  0
 18 19  2  0
 19 20  1  0
 20 21  2  0
 21 22  1  0
 21 23  1  0
 23 24  1  0
 24 25  1  0
 25 26  2  0
 25 27  1  0
 27 28  1  0
 11 29  2  0
 29  7  1  0
 28 18  1  0
 28 23  2  0
M  END
>  <pIC50>  (337) 
6.1

>  <ChEMBL_ID>  (337) 
CHEMBL1945292

>  <document_journal>  (337) 
Bioorg. Med. Chem. Lett.

>  <bao_endpoint>  (337) 
BAO_0000190

>  <potential_duplicate>  (337) 
False

>  <uo_units>  (337) 
UO_0000065

>  <canonical_smiles>  (337) 
COCCNCc1cccc(CCNC[C@H](O)c2ccc(O)c3NC(=O)Sc23)c1

>  <parent_molecule_chembl_id>  (337) 
CHEMBL1945292

>  <assay_type>  (337) 
B

>  <src_id>  (337) 
1

>  <ligand_efficiency>  (337) 
{u'le': u'0.29', u'bei': u'14.61', u'sei': u'4.76', u'lle': u'4.11'}

>  <standard_flag>  (337) 
True

>  <molecule_chembl_id>  (337) 
CHEMBL1945292

>  <target_organism>  (337) 
Homo sapiens

>  <standard_units>  (337) 
nM

>  <record_id>  (337) 
1574344

>  <document_chembl_id>  (337) 
CHEMBL1944599

>  <bao_format>  (337) 
BAO_0000357

>  <data_validity_description>  (337) 
None

>  <activity_id>  (337) 
8023049

>  <standard_type>  (337) 
IC50

>  <target_chembl_id>  (337) 
CHEMBL217

>  <data_validity_comment>  (337) 
None

>  <published_value>  (337) 
6.1

>  <document_year>  (337) 
2012

>  <target_pref_name>  (337) 
Dopamine D2 receptor

>  <assay_chembl_id>  (337) 
CHEMBL1947794

>  <standard_relation>  (337) 
=

>  <assay_description>  (337) 
Displacement of radiolabeled spiperone from dopamine D2 receptor

>  <published_relation>  (337) 
=

>  <standard_value>  (337) 
794.33

>  <qudt_units>  (337) 
http://www.openphacts.org/units/Nanomolar

>  <target_tax_id>  (337) 
9606

>  <bao_label>  (337) 
single protein format

>  <published_units>  (337) 
None

>  <pchembl_value>  (337) 
6.1

>  <published_type>  (337) 
pIC50

>  <activity_comment>  (337) 
None

$$$$

     RDKit          

 29 32  0  0  0  0  0  0  0  0999 V2000
    0.0000    0.0000    0.0000 O   0  0  0  0  0  0  0  0  0  0  0  0
    0.0000    0.0000    0.0000 C   0  0  0  0  0  0  0  0  0  0  0  0
    0.0000    0.0000    0.0000 C   0  0  0  0  0  0  0  0  0  0  0  0
    0.0000    0.0000    0.0000 N   0  0  0  0  0  0  0  0  0  0  0  0
    0.0000    0.0000    0.0000 C   0  0  0  0  0  0  0  0  0  0  0  0
    0.0000    0.0000    0.0000 C   0  0  0  0  0  0  0  0  0  0  0  0
    0.0000    0.0000    0.0000 C   0  0  0  0  0  0  0  0  0  0  0  0
    0.0000    0.0000    0.0000 C   0  0  0  0  0  0  0  0  0  0  0  0
    0.0000    0.0000    0.0000 C   0  0  0  0  0  0  0  0  0  0  0  0
    0.0000    0.0000    0.0000 C   0  0  0  0  0  0  0  0  0  0  0  0
    0.0000    0.0000    0.0000 C   0  0  0  0  0  0  0  0  0  0  0  0
    0.0000    0.0000    0.0000 C   0  0  0  0  0  0  0  0  0  0  0  0
    0.0000    0.0000    0.0000 N   0  0  0  0  0  0  0  0  0  0  0  0
    0.0000    0.0000    0.0000 C   0  0  0  0  0  0  0  0  0  0  0  0
    0.0000    0.0000    0.0000 C   0  0  0  0  0  0  0  0  0  0  0  0
    0.0000    0.0000    0.0000 C   0  0  0  0  0  0  0  0  0  0  0  0
    0.0000    0.0000    0.0000 C   0  0  0  0  0  0  0  0  0  0  0  0
    0.0000    0.0000    0.0000 C   0  0  0  0  0  0  0  0  0  0  0  0
    0.0000    0.0000    0.0000 C   0  0  0  0  0  0  0  0  0  0  0  0
    0.0000    0.0000    0.0000 C   0  0  0  0  0  0  0  0  0  0  0  0
    0.0000    0.0000    0.0000 C   0  0  0  0  0  0  0  0  0  0  0  0
    0.0000    0.0000    0.0000 C   0  0  0  0  0  0  0  0  0  0  0  0
    0.0000    0.0000    0.0000 O   0  0  0  0  0  0  0  0  0  0  0  0
    0.0000    0.0000    0.0000 C   0  0  0  0  0  0  0  0  0  0  0  0
    0.0000    0.0000    0.0000 N   0  0  0  0  0  0  0  0  0  0  0  0
    0.0000    0.0000    0.0000 C   0  0  0  0  0  0  0  0  0  0  0  0
    0.0000    0.0000    0.0000 O   0  0  0  0  0  0  0  0  0  0  0  0
    0.0000    0.0000    0.0000 S   0  0  0  0  0  0  0  0  0  0  0  0
    0.0000    0.0000    0.0000 C   0  0  0  0  0  0  0  0  0  0  0  0
  1  2  1  0
  2  3  1  0
  3  4  1  0
  4  5  1  0
  5  6  1  0
  6  7  1  0
  7  8  2  0
  8  9  1  0
  9 10  2  0
 10 11  1  0
 11 12  1  0
 12 13  1  0
 13 14  1  0
 14 15  1  0
 15 16  1  0
 16 17  1  0
 11 18  2  0
  2 19  1  0
 19 20  2  0
 20 21  1  0
 21 22  2  0
 22 23  1  0
 22 24  1  0
 24 25  1  0
 25 26  1  0
 26 27  2  0
 26 28  1  0
 28 29  1  0
 18  7  1  0
 17 13  1  0
 29 19  1  0
 29 24  2  0
M  END
>  <pIC50>  (338) 
5.5

>  <ChEMBL_ID>  (338) 
CHEMBL1945294

>  <document_journal>  (338) 
Bioorg. Med. Chem. Lett.

>  <bao_endpoint>  (338) 
BAO_0000190

>  <potential_duplicate>  (338) 
False

>  <uo_units>  (338) 
UO_0000065

>  <canonical_smiles>  (338) 
O[C@@H](CNCCc1cccc(CN2CCCC2)c1)c3ccc(O)c4NC(=O)Sc34

>  <parent_molecule_chembl_id>  (338) 
CHEMBL1945294

>  <assay_type>  (338) 
B

>  <src_id>  (338) 
1

>  <ligand_efficiency>  (338) 
{u'le': u'0.26', u'bei': u'13.3', u'sei': u'4.99', u'lle': u'2.38'}

>  <standard_flag>  (338) 
True

>  <molecule_chembl_id>  (338) 
CHEMBL1945294

>  <target_organism>  (338) 
Homo sapiens

>  <standard_units>  (338) 
nM

>  <record_id>  (338) 
1574346

>  <document_chembl_id>  (338) 
CHEMBL1944599

>  <bao_format>  (338) 
BAO_0000357

>  <data_validity_description>  (338) 
None

>  <activity_id>  (338) 
8023051

>  <standard_type>  (338) 
IC50

>  <target_chembl_id>  (338) 
CHEMBL217

>  <data_validity_comment>  (338) 
None

>  <published_value>  (338) 
5.5

>  <document_year>  (338) 
2012

>  <target_pref_name>  (338) 
Dopamine D2 receptor

>  <assay_chembl_id>  (338) 
CHEMBL1947794

>  <standard_relation>  (338) 
=

>  <assay_description>  (338) 
Displacement of radiolabeled spiperone from dopamine D2 receptor

>  <published_relation>  (338) 
=

>  <standard_value>  (338) 
3162.28

>  <qudt_units>  (338) 
http://www.openphacts.org/units/Nanomolar

>  <target_tax_id>  (338) 
9606

>  <bao_label>  (338) 
single protein format

>  <published_units>  (338) 
None

>  <pchembl_value>  (338) 
5.5

>  <published_type>  (338) 
pIC50

>  <activity_comment>  (338) 
None

$$$$

     RDKit          

 36 39  0  0  0  0  0  0  0  0999 V2000
    0.0000    0.0000    0.0000 O   0  0  0  0  0  0  0  0  0  0  0  0
    0.0000    0.0000    0.0000 C   0  0  0  0  0  0  0  0  0  0  0  0
    0.0000    0.0000    0.0000 C   0  0  0  0  0  0  0  0  0  0  0  0
    0.0000    0.0000    0.0000 N   0  0  0  0  0  0  0  0  0  0  0  0
    0.0000    0.0000    0.0000 C   0  0  0  0  0  0  0  0  0  0  0  0
    0.0000    0.0000    0.0000 C   0  0  0  0  0  0  0  0  0  0  0  0
    0.0000    0.0000    0.0000 C   0  0  0  0  0  0  0  0  0  0  0  0
    0.0000    0.0000    0.0000 C   0  0  0  0  0  0  0  0  0  0  0  0
    0.0000    0.0000    0.0000 C   0  0  0  0  0  0  0  0  0  0  0  0
    0.0000    0.0000    0.0000 C   0  0  0  0  0  0  0  0  0  0  0  0
    0.0000    0.0000    0.0000 C   0  0  0  0  0  0  0  0  0  0  0  0
    0.0000    0.0000    0.0000 C   0  0  0  0  0  0  0  0  0  0  0  0
    0.0000    0.0000    0.0000 C   0  0  0  0  0  0  0  0  0  0  0  0
    0.0000    0.0000    0.0000 N   0  0  0  0  0  0  0  0  0  0  0  0
    0.0000    0.0000    0.0000 C   0  0  0  0  0  0  0  0  0  0  0  0
    0.0000    0.0000    0.0000 C   0  0  0  0  0  0  0  0  0  0  0  0
    0.0000    0.0000    0.0000 C   0  0  0  0  0  0  0  0  0  0  0  0
    0.0000    0.0000    0.0000 C   0  0  0  0  0  0  0  0  0  0  0  0
    0.0000    0.0000    0.0000 Cl  0  0  0  0  0  0  0  0  0  0  0  0
    0.0000    0.0000    0.0000 C   0  0  0  0  0  0  0  0  0  0  0  0
    0.0000    0.0000    0.0000 C   0  0  0  0  0  0  0  0  0  0  0  0
    0.0000    0.0000    0.0000 C   0  0  0  0  0  0  0  0  0  0  0  0
    0.0000    0.0000    0.0000 C   0  0  0  0  0  0  0  0  0  0  0  0
    0.0000    0.0000    0.0000 Cl  0  0  0  0  0  0  0  0  0  0  0  0
    0.0000    0.0000    0.0000 C   0  0  0  0  0  0  0  0  0  0  0  0
    0.0000    0.0000    0.0000 C   0  0  0  0  0  0  0  0  0  0  0  0
    0.0000    0.0000    0.0000 C   0  0  0  0  0  0  0  0  0  0  0  0
    0.0000    0.0000    0.0000 C   0  0  0  0  0  0  0  0  0  0  0  0
    0.0000    0.0000    0.0000 C   0  0  0  0  0  0  0  0  0  0  0  0
    0.0000    0.0000    0.0000 O   0  0  0  0  0  0  0  0  0  0  0  0
    0.0000    0.0000    0.0000 C   0  0  0  0  0  0  0  0  0  0  0  0
    0.0000    0.0000    0.0000 N   0  0  0  0  0  0  0  0  0  0  0  0
    0.0000    0.0000    0.0000 C   0  0  0  0  0  0  0  0  0  0  0  0
    0.0000    0.0000    0.0000 O   0  0  0  0  0  0  0  0  0  0  0  0
    0.0000    0.0000    0.0000 S   0  0  0  0  0  0  0  0  0  0  0  0
    0.0000    0.0000    0.0000 C   0  0  0  0  0  0  0  0  0  0  0  0
  1  2  1  0
  2  3  1  0
  3  4  1  0
  4  5  1  0
  5  6  1  0
  6  7  1  0
  7  8  1  0
  8  9  2  0
  9 10  1  0
 10 11  2  0
 11 12  1  0
 12 13  1  0
 13 14  1  0
 14 15  1  0
 15 16  1  0
 16 17  1  0
 17 18  2  0
 18 19  1  0
 18 20  1  0
 20 21  2  0
 21 22  1  0
 22 23  2  0
 23 24  1  0
 12 25  2  0
  2 26  1  0
 26 27  2  0
 27 28  1  0
 28 29  2  0
 29 30  1  0
 29 31  1  0
 31 32  1  0
 32 33  1  0
 33 34  2  0
 33 35  1  0
 35 36  1  0
 25  8  1  0
 23 17  1  0
 36 26  1  0
 36 31  2  0
M  END
>  <pIC50>  (339) 
7.1

>  <ChEMBL_ID>  (339) 
CHEMBL1945296

>  <document_journal>  (339) 
Bioorg. Med. Chem. Lett.

>  <bao_endpoint>  (339) 
BAO_0000190

>  <potential_duplicate>  (339) 
False

>  <uo_units>  (339) 
UO_0000065

>  <canonical_smiles>  (339) 
O[C@@H](CNCCCc1cccc(CNCCc2c(Cl)cccc2Cl)c1)c3ccc(O)c4NC(=O)Sc34

>  <parent_molecule_chembl_id>  (339) 
CHEMBL1945296

>  <assay_type>  (339) 
B

>  <src_id>  (339) 
1

>  <ligand_efficiency>  (339) 
{u'le': u'0.27', u'bei': u'12.99', u'sei': u'5.97', u'lle': u'1.28'}

>  <standard_flag>  (339) 
True

>  <molecule_chembl_id>  (339) 
CHEMBL1945296

>  <target_organism>  (339) 
Homo sapiens

>  <standard_units>  (339) 
nM

>  <record_id>  (339) 
1574348

>  <document_chembl_id>  (339) 
CHEMBL1944599

>  <bao_format>  (339) 
BAO_0000357

>  <data_validity_description>  (339) 
None

>  <activity_id>  (339) 
8023053

>  <standard_type>  (339) 
IC50

>  <target_chembl_id>  (339) 
CHEMBL217

>  <data_validity_comment>  (339) 
None

>  <published_value>  (339) 
7.1

>  <document_year>  (339) 
2012

>  <target_pref_name>  (339) 
Dopamine D2 receptor

>  <assay_chembl_id>  (339) 
CHEMBL1947794

>  <standard_relation>  (339) 
=

>  <assay_description>  (339) 
Displacement of radiolabeled spiperone from dopamine D2 receptor

>  <published_relation>  (339) 
=

>  <standard_value>  (339) 
79.43

>  <qudt_units>  (339) 
http://www.openphacts.org/units/Nanomolar

>  <target_tax_id>  (339) 
9606

>  <bao_label>  (339) 
single protein format

>  <published_units>  (339) 
None

>  <pchembl_value>  (339) 
7.1

>  <published_type>  (339) 
pIC50

>  <activity_comment>  (339) 
None

$$$$

     RDKit          

 36 39  0  0  0  0  0  0  0  0999 V2000
    0.0000    0.0000    0.0000 C   0  0  0  0  0  0  0  0  0  0  0  0
    0.0000    0.0000    0.0000 C   0  0  0  0  0  0  0  0  0  0  0  0
    0.0000    0.0000    0.0000 C   0  0  0  0  0  0  0  0  0  0  0  0
    0.0000    0.0000    0.0000 C   0  0  0  0  0  0  0  0  0  0  0  0
    0.0000    0.0000    0.0000 C   0  0  0  0  0  0  0  0  0  0  0  0
    0.0000    0.0000    0.0000 C   0  0  0  0  0  0  0  0  0  0  0  0
    0.0000    0.0000    0.0000 C   0  0  0  0  0  0  0  0  0  0  0  0
    0.0000    0.0000    0.0000 C   0  0  0  0  0  0  0  0  0  0  0  0
    0.0000    0.0000    0.0000 C   0  0  0  0  0  0  0  0  0  0  0  0
    0.0000    0.0000    0.0000 N   0  0  0  0  0  0  0  0  0  0  0  0
    0.0000    0.0000    0.0000 C   0  0  0  0  0  0  0  0  0  0  0  0
    0.0000    0.0000    0.0000 C   0  0  0  0  0  0  0  0  0  0  0  0
    0.0000    0.0000    0.0000 C   0  0  0  0  0  0  0  0  0  0  0  0
    0.0000    0.0000    0.0000 C   0  0  0  0  0  0  0  0  0  0  0  0
    0.0000    0.0000    0.0000 Cl  0  0  0  0  0  0  0  0  0  0  0  0
    0.0000    0.0000    0.0000 C   0  0  0  0  0  0  0  0  0  0  0  0
    0.0000    0.0000    0.0000 C   0  0  0  0  0  0  0  0  0  0  0  0
    0.0000    0.0000    0.0000 C   0  0  0  0  0  0  0  0  0  0  0  0
    0.0000    0.0000    0.0000 C   0  0  0  0  0  0  0  0  0  0  0  0
    0.0000    0.0000    0.0000 Cl  0  0  0  0  0  0  0  0  0  0  0  0
    0.0000    0.0000    0.0000 C   0  0  0  0  0  0  0  0  0  0  0  0
    0.0000    0.0000    0.0000 N   0  0  0  0  0  0  0  0  0  0  0  0
    0.0000    0.0000    0.0000 C   0  0  0  0  0  0  0  0  0  0  0  0
    0.0000    0.0000    0.0000 C   0  0  0  0  0  0  0  0  0  0  0  0
    0.0000    0.0000    0.0000 O   0  0  0  0  0  0  0  0  0  0  0  0
    0.0000    0.0000    0.0000 C   0  0  0  0  0  0  0  0  0  0  0  0
    0.0000    0.0000    0.0000 C   0  0  0  0  0  0  0  0  0  0  0  0
    0.0000    0.0000    0.0000 C   0  0  0  0  0  0  0  0  0  0  0  0
    0.0000    0.0000    0.0000 C   0  0  0  0  0  0  0  0  0  0  0  0
    0.0000    0.0000    0.0000 O   0  0  0  0  0  0  0  0  0  0  0  0
    0.0000    0.0000    0.0000 C   0  0  0  0  0  0  0  0  0  0  0  0
    0.0000    0.0000    0.0000 N   0  0  0  0  0  0  0  0  0  0  0  0
    0.0000    0.0000    0.0000 C   0  0  0  0  0  0  0  0  0  0  0  0
    0.0000    0.0000    0.0000 O   0  0  0  0  0  0  0  0  0  0  0  0
    0.0000    0.0000    0.0000 S   0  0  0  0  0  0  0  0  0  0  0  0
    0.0000    0.0000    0.0000 C   0  0  0  0  0  0  0  0  0  0  0  0
  1  2  1  0
  2  3  1  0
  3  4  1  0
  4  5  2  0
  5  6  1  0
  6  7  2  0
  7  8  1  0
  8  9  1  0
  9 10  1  0
 10 11  1  0
 11 12  1  0
 12 13  1  0
 13 14  2  0
 14 15  1  0
 14 16  1  0
 16 17  2  0
 17 18  1  0
 18 19  2  0
 19 20  1  0
  8 21  2  0
  2 22  1  0
 22 23  1  0
 23 24  1  0
 24 25  1  0
 24 26  1  0
 26 27  2  0
 27 28  1  0
 28 29  2  0
 29 30  1  0
 29 31  1  0
 31 32  1  0
 32 33  1  0
 33 34  2  0
 33 35  1  0
 35 36  1  0
 21  4  1  0
 19 13  1  0
 36 26  1  0
 36 31  2  0
M  END
>  <pIC50>  (340) 
6.9

>  <ChEMBL_ID>  (340) 
CHEMBL1945297

>  <document_journal>  (340) 
Bioorg. Med. Chem. Lett.

>  <bao_endpoint>  (340) 
BAO_0000190

>  <potential_duplicate>  (340) 
False

>  <uo_units>  (340) 
UO_0000065

>  <canonical_smiles>  (340) 
CC(Cc1cccc(CNCCc2c(Cl)cccc2Cl)c1)NC[C@H](O)c3ccc(O)c4NC(=O)Sc34

>  <parent_molecule_chembl_id>  (340) 
CHEMBL1945297

>  <assay_type>  (340) 
B

>  <src_id>  (340) 
1

>  <ligand_efficiency>  (340) 
{u'le': u'0.26', u'bei': u'12.63', u'sei': u'5.8', u'lle': u'1.16'}

>  <standard_flag>  (340) 
True

>  <molecule_chembl_id>  (340) 
CHEMBL1945297

>  <target_organism>  (340) 
Homo sapiens

>  <standard_units>  (340) 
nM

>  <record_id>  (340) 
1574349

>  <document_chembl_id>  (340) 
CHEMBL1944599

>  <bao_format>  (340) 
BAO_0000357

>  <data_validity_description>  (340) 
None

>  <activity_id>  (340) 
8023054

>  <standard_type>  (340) 
IC50

>  <target_chembl_id>  (340) 
CHEMBL217

>  <data_validity_comment>  (340) 
None

>  <published_value>  (340) 
6.9

>  <document_year>  (340) 
2012

>  <target_pref_name>  (340) 
Dopamine D2 receptor

>  <assay_chembl_id>  (340) 
CHEMBL1947794

>  <standard_relation>  (340) 
=

>  <assay_description>  (340) 
Displacement of radiolabeled spiperone from dopamine D2 receptor

>  <published_relation>  (340) 
=

>  <standard_value>  (340) 
125.89

>  <qudt_units>  (340) 
http://www.openphacts.org/units/Nanomolar

>  <target_tax_id>  (340) 
9606

>  <bao_label>  (340) 
single protein format

>  <published_units>  (340) 
None

>  <pchembl_value>  (340) 
6.9

>  <published_type>  (340) 
pIC50

>  <activity_comment>  (340) 
None

$$$$

     RDKit          

 35 38  0  0  0  0  0  0  0  0999 V2000
    0.0000    0.0000    0.0000 O   0  0  0  0  0  0  0  0  0  0  0  0
    0.0000    0.0000    0.0000 C   0  0  0  0  0  0  0  0  0  0  0  0
    0.0000    0.0000    0.0000 C   0  0  0  0  0  0  0  0  0  0  0  0
    0.0000    0.0000    0.0000 N   0  0  0  0  0  0  0  0  0  0  0  0
    0.0000    0.0000    0.0000 C   0  0  0  0  0  0  0  0  0  0  0  0
    0.0000    0.0000    0.0000 C   0  0  0  0  0  0  0  0  0  0  0  0
    0.0000    0.0000    0.0000 O   0  0  0  0  0  0  0  0  0  0  0  0
    0.0000    0.0000    0.0000 C   0  0  0  0  0  0  0  0  0  0  0  0
    0.0000    0.0000    0.0000 C   0  0  0  0  0  0  0  0  0  0  0  0
    0.0000    0.0000    0.0000 C   0  0  0  0  0  0  0  0  0  0  0  0
    0.0000    0.0000    0.0000 C   0  0  0  0  0  0  0  0  0  0  0  0
    0.0000    0.0000    0.0000 C   0  0  0  0  0  0  0  0  0  0  0  0
    0.0000    0.0000    0.0000 C   0  0  0  0  0  0  0  0  0  0  0  0
    0.0000    0.0000    0.0000 N   0  0  0  0  0  0  0  0  0  0  0  0
    0.0000    0.0000    0.0000 C   0  0  0  0  0  0  0  0  0  0  0  0
    0.0000    0.0000    0.0000 C   0  0  0  0  0  0  0  0  0  0  0  0
    0.0000    0.0000    0.0000 C   0  0  0  0  0  0  0  0  0  0  0  0
    0.0000    0.0000    0.0000 C   0  0  0  0  0  0  0  0  0  0  0  0
    0.0000    0.0000    0.0000 C   0  0  0  0  0  0  0  0  0  0  0  0
    0.0000    0.0000    0.0000 C   0  0  0  0  0  0  0  0  0  0  0  0
    0.0000    0.0000    0.0000 C   0  0  0  0  0  0  0  0  0  0  0  0
    0.0000    0.0000    0.0000 C   0  0  0  0  0  0  0  0  0  0  0  0
    0.0000    0.0000    0.0000 F   0  0  0  0  0  0  0  0  0  0  0  0
    0.0000    0.0000    0.0000 C   0  0  0  0  0  0  0  0  0  0  0  0
    0.0000    0.0000    0.0000 C   0  0  0  0  0  0  0  0  0  0  0  0
    0.0000    0.0000    0.0000 C   0  0  0  0  0  0  0  0  0  0  0  0
    0.0000    0.0000    0.0000 C   0  0  0  0  0  0  0  0  0  0  0  0
    0.0000    0.0000    0.0000 C   0  0  0  0  0  0  0  0  0  0  0  0
    0.0000    0.0000    0.0000 O   0  0  0  0  0  0  0  0  0  0  0  0
    0.0000    0.0000    0.0000 C   0  0  0  0  0  0  0  0  0  0  0  0
    0.0000    0.0000    0.0000 N   0  0  0  0  0  0  0  0  0  0  0  0
    0.0000    0.0000    0.0000 C   0  0  0  0  0  0  0  0  0  0  0  0
    0.0000    0.0000    0.0000 O   0  0  0  0  0  0  0  0  0  0  0  0
    0.0000    0.0000    0.0000 S   0  0  0  0  0  0  0  0  0  0  0  0
    0.0000    0.0000    0.0000 C   0  0  0  0  0  0  0  0  0  0  0  0
  1  2  1  0
  2  3  1  0
  3  4  1  0
  4  5  1  0
  5  6  1  0
  6  7  1  0
  7  8  1  0
  8  9  2  0
  9 10  1  0
 10 11  2  0
 11 12  1  0
 12 13  1  0
 13 14  1  0
 14 15  1  0
 15 16  1  0
 16 17  1  0
 17 18  2  0
 18 19  1  0
 19 20  2  0
 20 21  1  0
 21 22  2  0
 22 23  1  0
 12 24  2  0
  2 25  1  0
 25 26  2  0
 26 27  1  0
 27 28  2  0
 28 29  1  0
 28 30  1  0
 30 31  1  0
 31 32  1  0
 32 33  2  0
 32 34  1  0
 34 35  1  0
 24  8  1  0
 22 17  1  0
 35 25  1  0
 35 30  2  0
M  END
>  <pIC50>  (341) 
6.4

>  <ChEMBL_ID>  (341) 
CHEMBL1945298

>  <document_journal>  (341) 
Bioorg. Med. Chem. Lett.

>  <bao_endpoint>  (341) 
BAO_0000190

>  <potential_duplicate>  (341) 
False

>  <uo_units>  (341) 
UO_0000065

>  <canonical_smiles>  (341) 
O[C@@H](CNCCOc1cccc(CNCCc2ccccc2F)c1)c3ccc(O)c4NC(=O)Sc34

>  <parent_molecule_chembl_id>  (341) 
CHEMBL1945298

>  <assay_type>  (341) 
B

>  <src_id>  (341) 
1

>  <ligand_efficiency>  (341) 
{u'le': u'0.25', u'bei': u'12.86', u'sei': u'4.99', u'lle': u'2.44'}

>  <standard_flag>  (341) 
True

>  <molecule_chembl_id>  (341) 
CHEMBL1945298

>  <target_organism>  (341) 
Homo sapiens

>  <standard_units>  (341) 
nM

>  <record_id>  (341) 
1574350

>  <document_chembl_id>  (341) 
CHEMBL1944599

>  <bao_format>  (341) 
BAO_0000357

>  <data_validity_description>  (341) 
None

>  <activity_id>  (341) 
8023055

>  <standard_type>  (341) 
IC50

>  <target_chembl_id>  (341) 
CHEMBL217

>  <data_validity_comment>  (341) 
None

>  <published_value>  (341) 
6.4

>  <document_year>  (341) 
2012

>  <target_pref_name>  (341) 
Dopamine D2 receptor

>  <assay_chembl_id>  (341) 
CHEMBL1947794

>  <standard_relation>  (341) 
=

>  <assay_description>  (341) 
Displacement of radiolabeled spiperone from dopamine D2 receptor

>  <published_relation>  (341) 
=

>  <standard_value>  (341) 
398.11

>  <qudt_units>  (341) 
http://www.openphacts.org/units/Nanomolar

>  <target_tax_id>  (341) 
9606

>  <bao_label>  (341) 
single protein format

>  <published_units>  (341) 
None

>  <pchembl_value>  (341) 
6.4

>  <published_type>  (341) 
pIC50

>  <activity_comment>  (341) 
None

$$$$

     RDKit          

 35 38  0  0  0  0  0  0  0  0999 V2000
    0.0000    0.0000    0.0000 C   0  0  0  0  0  0  0  0  0  0  0  0
    0.0000    0.0000    0.0000 O   0  0  0  0  0  0  0  0  0  0  0  0
    0.0000    0.0000    0.0000 C   0  0  0  0  0  0  0  0  0  0  0  0
    0.0000    0.0000    0.0000 C   0  0  0  0  0  0  0  0  0  0  0  0
    0.0000    0.0000    0.0000 C   0  0  0  0  0  0  0  0  0  0  0  0
    0.0000    0.0000    0.0000 C   0  0  0  0  0  0  0  0  0  0  0  0
    0.0000    0.0000    0.0000 C   0  0  0  0  0  0  0  0  0  0  0  0
    0.0000    0.0000    0.0000 C   0  0  0  0  0  0  0  0  0  0  0  0
    0.0000    0.0000    0.0000 C   0  0  0  0  0  0  0  0  0  0  0  0
    0.0000    0.0000    0.0000 N   0  0  0  0  0  0  0  0  0  0  0  0
    0.0000    0.0000    0.0000 C   0  0  0  0  0  0  0  0  0  0  0  0
    0.0000    0.0000    0.0000 C   0  0  0  0  0  0  0  0  0  0  0  0
    0.0000    0.0000    0.0000 C   0  0  0  0  0  0  0  0  0  0  0  0
    0.0000    0.0000    0.0000 C   0  0  0  0  0  0  0  0  0  0  0  0
    0.0000    0.0000    0.0000 C   0  0  0  0  0  0  0  0  0  0  0  0
    0.0000    0.0000    0.0000 C   0  0  0  0  0  0  0  0  0  0  0  0
    0.0000    0.0000    0.0000 C   0  0  0  0  0  0  0  0  0  0  0  0
    0.0000    0.0000    0.0000 C   0  0  0  0  0  0  0  0  0  0  0  0
    0.0000    0.0000    0.0000 C   0  0  0  0  0  0  0  0  0  0  0  0
    0.0000    0.0000    0.0000 N   0  0  0  0  0  0  0  0  0  0  0  0
    0.0000    0.0000    0.0000 C   0  0  0  0  0  0  0  0  0  0  0  0
    0.0000    0.0000    0.0000 C   0  0  0  0  0  0  0  0  0  0  0  0
    0.0000    0.0000    0.0000 O   0  0  0  0  0  0  0  0  0  0  0  0
    0.0000    0.0000    0.0000 C   0  0  0  0  0  0  0  0  0  0  0  0
    0.0000    0.0000    0.0000 C   0  0  0  0  0  0  0  0  0  0  0  0
    0.0000    0.0000    0.0000 C   0  0  0  0  0  0  0  0  0  0  0  0
    0.0000    0.0000    0.0000 C   0  0  0  0  0  0  0  0  0  0  0  0
    0.0000    0.0000    0.0000 O   0  0  0  0  0  0  0  0  0  0  0  0
    0.0000    0.0000    0.0000 C   0  0  0  0  0  0  0  0  0  0  0  0
    0.0000    0.0000    0.0000 N   0  0  0  0  0  0  0  0  0  0  0  0
    0.0000    0.0000    0.0000 C   0  0  0  0  0  0  0  0  0  0  0  0
    0.0000    0.0000    0.0000 O   0  0  0  0  0  0  0  0  0  0  0  0
    0.0000    0.0000    0.0000 S   0  0  0  0  0  0  0  0  0  0  0  0
    0.0000    0.0000    0.0000 C   0  0  0  0  0  0  0  0  0  0  0  0
    0.0000    0.0000    0.0000 C   0  0  0  0  0  0  0  0  0  0  0  0
  1  2  1  0
  2  3  1  0
  3  4  2  0
  4  5  1  0
  5  6  2  0
  6  7  1  0
  7  8  2  0
  8  9  1  0
  9 10  1  0
 10 11  1  0
 11 12  1  0
 12 13  1  0
 13 14  2  0
 14 15  1  0
 15 16  2  0
 16 17  1  0
 17 18  1  0
 18 19  1  0
 19 20  1  0
 20 21  1  0
 21 22  1  0
 22 23  1  0
 22 24  1  0
 24 25  2  0
 25 26  1  0
 26 27  2  0
 27 28  1  0
 27 29  1  0
 29 30  1  0
 30 31  1  0
 31 32  2  0
 31 33  1  0
 33 34  1  0
 17 35  2  0
  8  3  1  0
 35 13  1  0
 34 24  1  0
 34 29  2  0
M  END
>  <pIC50>  (342) 
6.0

>  <ChEMBL_ID>  (342) 
CHEMBL1945299

>  <document_journal>  (342) 
Bioorg. Med. Chem. Lett.

>  <bao_endpoint>  (342) 
BAO_0000190

>  <potential_duplicate>  (342) 
False

>  <uo_units>  (342) 
UO_0000065

>  <canonical_smiles>  (342) 
COc1ccccc1CNCCc2cccc(CCNC[C@H](O)c3ccc(O)c4NC(=O)Sc34)c2

>  <parent_molecule_chembl_id>  (342) 
CHEMBL1945299

>  <assay_type>  (342) 
B

>  <src_id>  (342) 
1

>  <ligand_efficiency>  (342) 
{u'le': u'0.23', u'bei': u'12.16', u'sei': u'4.68', u'lle': u'1.99'}

>  <standard_flag>  (342) 
True

>  <molecule_chembl_id>  (342) 
CHEMBL1945299

>  <target_organism>  (342) 
Homo sapiens

>  <standard_units>  (342) 
nM

>  <record_id>  (342) 
1574351

>  <document_chembl_id>  (342) 
CHEMBL1944599

>  <bao_format>  (342) 
BAO_0000357

>  <data_validity_description>  (342) 
None

>  <activity_id>  (342) 
8023056

>  <standard_type>  (342) 
IC50

>  <target_chembl_id>  (342) 
CHEMBL217

>  <data_validity_comment>  (342) 
None

>  <published_value>  (342) 
6

>  <document_year>  (342) 
2012

>  <target_pref_name>  (342) 
Dopamine D2 receptor

>  <assay_chembl_id>  (342) 
CHEMBL1947794

>  <standard_relation>  (342) 
=

>  <assay_description>  (342) 
Displacement of radiolabeled spiperone from dopamine D2 receptor

>  <published_relation>  (342) 
=

>  <standard_value>  (342) 
1000

>  <qudt_units>  (342) 
http://www.openphacts.org/units/Nanomolar

>  <target_tax_id>  (342) 
9606

>  <bao_label>  (342) 
single protein format

>  <published_units>  (342) 
None

>  <pchembl_value>  (342) 
6

>  <published_type>  (342) 
pIC50

>  <activity_comment>  (342) 
None

$$$$

     RDKit          

 34 37  0  0  0  0  0  0  0  0999 V2000
    0.0000    0.0000    0.0000 C   0  0  0  0  0  0  0  0  0  0  0  0
    0.0000    0.0000    0.0000 O   0  0  0  0  0  0  0  0  0  0  0  0
    0.0000    0.0000    0.0000 C   0  0  0  0  0  0  0  0  0  0  0  0
    0.0000    0.0000    0.0000 C   0  0  0  0  0  0  0  0  0  0  0  0
    0.0000    0.0000    0.0000 C   0  0  0  0  0  0  0  0  0  0  0  0
    0.0000    0.0000    0.0000 C   0  0  0  0  0  0  0  0  0  0  0  0
    0.0000    0.0000    0.0000 C   0  0  0  0  0  0  0  0  0  0  0  0
    0.0000    0.0000    0.0000 C   0  0  0  0  0  0  0  0  0  0  0  0
    0.0000    0.0000    0.0000 C   0  0  0  0  0  0  0  0  0  0  0  0
    0.0000    0.0000    0.0000 N   0  0  0  0  0  0  0  0  0  0  0  0
    0.0000    0.0000    0.0000 C   0  0  0  0  0  0  0  0  0  0  0  0
    0.0000    0.0000    0.0000 C   0  0  0  0  0  0  0  0  0  0  0  0
    0.0000    0.0000    0.0000 C   0  0  0  0  0  0  0  0  0  0  0  0
    0.0000    0.0000    0.0000 C   0  0  0  0  0  0  0  0  0  0  0  0
    0.0000    0.0000    0.0000 C   0  0  0  0  0  0  0  0  0  0  0  0
    0.0000    0.0000    0.0000 C   0  0  0  0  0  0  0  0  0  0  0  0
    0.0000    0.0000    0.0000 C   0  0  0  0  0  0  0  0  0  0  0  0
    0.0000    0.0000    0.0000 N   0  0  0  0  0  0  0  0  0  0  0  0
    0.0000    0.0000    0.0000 C   0  0  0  0  0  0  0  0  0  0  0  0
    0.0000    0.0000    0.0000 C   0  0  0  0  0  0  0  0  0  0  0  0
    0.0000    0.0000    0.0000 O   0  0  0  0  0  0  0  0  0  0  0  0
    0.0000    0.0000    0.0000 C   0  0  0  0  0  0  0  0  0  0  0  0
    0.0000    0.0000    0.0000 C   0  0  0  0  0  0  0  0  0  0  0  0
    0.0000    0.0000    0.0000 C   0  0  0  0  0  0  0  0  0  0  0  0
    0.0000    0.0000    0.0000 C   0  0  0  0  0  0  0  0  0  0  0  0
    0.0000    0.0000    0.0000 O   0  0  0  0  0  0  0  0  0  0  0  0
    0.0000    0.0000    0.0000 C   0  0  0  0  0  0  0  0  0  0  0  0
    0.0000    0.0000    0.0000 N   0  0  0  0  0  0  0  0  0  0  0  0
    0.0000    0.0000    0.0000 C   0  0  0  0  0  0  0  0  0  0  0  0
    0.0000    0.0000    0.0000 O   0  0  0  0  0  0  0  0  0  0  0  0
    0.0000    0.0000    0.0000 S   0  0  0  0  0  0  0  0  0  0  0  0
    0.0000    0.0000    0.0000 C   0  0  0  0  0  0  0  0  0  0  0  0
    0.0000    0.0000    0.0000 C   0  0  0  0  0  0  0  0  0  0  0  0
    0.0000    0.0000    0.0000 C   0  0  0  0  0  0  0  0  0  0  0  0
  1  2  1  0
  2  3  1  0
  3  4  2  0
  4  5  1  0
  5  6  2  0
  6  7  1  0
  7  8  2  0
  8  9  1  0
  9 10  1  0
 10 11  1  0
 11 12  1  0
 12 13  2  0
 13 14  1  0
 14 15  2  0
 15 16  1  0
 16 17  1  0
 17 18  1  0
 18 19  1  0
 19 20  1  0
 20 21  1  0
 20 22  1  0
 22 23  2  0
 23 24  1  0
 24 25  2  0
 25 26  1  0
 25 27  1  0
 27 28  1  0
 28 29  1  0
 29 30  2  0
 29 31  1  0
 31 32  1  0
 15 33  1  0
 33 34  2  0
  8  3  1  0
 34 12  1  0
 32 22  1  0
 32 27  2  0
M  END
>  <pIC50>  (343) 
5.7

>  <ChEMBL_ID>  (343) 
CHEMBL1945504

>  <document_journal>  (343) 
Bioorg. Med. Chem. Lett.

>  <bao_endpoint>  (343) 
BAO_0000190

>  <potential_duplicate>  (343) 
False

>  <uo_units>  (343) 
UO_0000065

>  <canonical_smiles>  (343) 
COc1ccccc1CNCc2ccc(CCNC[C@@H](O)c3ccc(O)c4NC(=O)Sc34)cc2

>  <parent_molecule_chembl_id>  (343) 
CHEMBL1945504

>  <assay_type>  (343) 
B

>  <src_id>  (343) 
1

>  <ligand_efficiency>  (343) 
{u'le': u'0.23', u'bei': u'11.89', u'sei': u'4.45', u'lle': u'2.01'}

>  <standard_flag>  (343) 
True

>  <molecule_chembl_id>  (343) 
CHEMBL1945504

>  <target_organism>  (343) 
Homo sapiens

>  <standard_units>  (343) 
nM

>  <record_id>  (343) 
1574610

>  <document_chembl_id>  (343) 
CHEMBL1944599

>  <bao_format>  (343) 
BAO_0000357

>  <data_validity_description>  (343) 
None

>  <activity_id>  (343) 
8023059

>  <standard_type>  (343) 
IC50

>  <target_chembl_id>  (343) 
CHEMBL217

>  <data_validity_comment>  (343) 
None

>  <published_value>  (343) 
5.7

>  <document_year>  (343) 
2012

>  <target_pref_name>  (343) 
Dopamine D2 receptor

>  <assay_chembl_id>  (343) 
CHEMBL1947794

>  <standard_relation>  (343) 
=

>  <assay_description>  (343) 
Displacement of radiolabeled spiperone from dopamine D2 receptor

>  <published_relation>  (343) 
=

>  <standard_value>  (343) 
1995.26

>  <qudt_units>  (343) 
http://www.openphacts.org/units/Nanomolar

>  <target_tax_id>  (343) 
9606

>  <bao_label>  (343) 
single protein format

>  <published_units>  (343) 
None

>  <pchembl_value>  (343) 
5.7

>  <published_type>  (343) 
pIC50

>  <activity_comment>  (343) 
None

$$$$

     RDKit          

 58 65  0  0  0  0  0  0  0  0999 V2000
    0.0000    0.0000    0.0000 C   0  0  0  0  0  0  0  0  0  0  0  0
    0.0000    0.0000    0.0000 N   0  0  0  0  0  0  0  0  0  0  0  0
    0.0000    0.0000    0.0000 C   0  0  0  0  0  0  0  0  0  0  0  0
    0.0000    0.0000    0.0000 C   0  0  0  0  0  0  0  0  0  0  0  0
    0.0000    0.0000    0.0000 N   0  0  0  0  0  0  0  0  0  0  0  0
    0.0000    0.0000    0.0000 C   0  0  0  0  0  0  0  0  0  0  0  0
    0.0000    0.0000    0.0000 C   0  0  0  0  0  0  0  0  0  0  0  0
    0.0000    0.0000    0.0000 C   0  0  0  0  0  0  0  0  0  0  0  0
    0.0000    0.0000    0.0000 N   0  0  0  0  0  0  0  0  0  0  0  0
    0.0000    0.0000    0.0000 C   0  0  0  0  0  0  0  0  0  0  0  0
    0.0000    0.0000    0.0000 C   0  0  0  0  0  0  0  0  0  0  0  0
    0.0000    0.0000    0.0000 C   0  0  0  0  0  0  0  0  0  0  0  0
    0.0000    0.0000    0.0000 Cl  0  0  0  0  0  0  0  0  0  0  0  0
    0.0000    0.0000    0.0000 C   0  0  0  0  0  0  0  0  0  0  0  0
    0.0000    0.0000    0.0000 C   0  0  0  0  0  0  0  0  0  0  0  0
    0.0000    0.0000    0.0000 C   0  0  0  0  0  0  0  0  0  0  0  0
    0.0000    0.0000    0.0000 N   0  0  0  0  0  0  0  0  0  0  0  0
    0.0000    0.0000    0.0000 N   0  0  0  0  0  0  0  0  0  0  0  0
    0.0000    0.0000    0.0000 C   0  0  0  0  0  0  0  0  0  0  0  0
    0.0000    0.0000    0.0000 O   0  0  0  0  0  0  0  0  0  0  0  0
    0.0000    0.0000    0.0000 C   0  0  0  0  0  0  0  0  0  0  0  0
    0.0000    0.0000    0.0000 C   0  0  0  0  0  0  0  0  0  0  0  0
    0.0000    0.0000    0.0000 C   0  0  0  0  0  0  0  0  0  0  0  0
    0.0000    0.0000    0.0000 C   0  0  0  0  0  0  0  0  0  0  0  0
    0.0000    0.0000    0.0000 C   0  0  0  0  0  0  0  0  0  0  0  0
    0.0000    0.0000    0.0000 C   0  0  0  0  0  0  0  0  0  0  0  0
    0.0000    0.0000    0.0000 C   0  0  0  0  0  0  0  0  0  0  0  0
    0.0000    0.0000    0.0000 O   0  0  0  0  0  0  0  0  0  0  0  0
    0.0000    0.0000    0.0000 N   0  0  0  0  0  0  0  0  0  0  0  0
    0.0000    0.0000    0.0000 N   0  0  0  0  0  0  0  0  0  0  0  0
    0.0000    0.0000    0.0000 C   0  0  0  0  0  0  0  0  0  0  0  0
    0.0000    0.0000    0.0000 C   0  0  0  0  0  0  0  0  0  0  0  0
    0.0000    0.0000    0.0000 C   0  0  0  0  0  0  0  0  0  0  0  0
    0.0000    0.0000    0.0000 C   0  0  0  0  0  0  0  0  0  0  0  0
    0.0000    0.0000    0.0000 Cl  0  0  0  0  0  0  0  0  0  0  0  0
    0.0000    0.0000    0.0000 C   0  0  0  0  0  0  0  0  0  0  0  0
    0.0000    0.0000    0.0000 C   0  0  0  0  0  0  0  0  0  0  0  0
    0.0000    0.0000    0.0000 N   0  0  0  0  0  0  0  0  0  0  0  0
    0.0000    0.0000    0.0000 C   0  0  0  0  0  0  0  0  0  0  0  0
    0.0000    0.0000    0.0000 N   0  0  0  0  0  0  0  0  0  0  0  0
    0.0000    0.0000    0.0000 C   0  0  0  0  0  0  0  0  0  0  0  0
    0.0000    0.0000    0.0000 C   0  0  0  0  0  0  0  0  0  0  0  0
    0.0000    0.0000    0.0000 N   0  0  0  0  0  0  0  0  0  0  0  0
    0.0000    0.0000    0.0000 C   0  0  0  0  0  0  0  0  0  0  0  0
    0.0000    0.0000    0.0000 C   0  0  0  0  0  0  0  0  0  0  0  0
    0.0000    0.0000    0.0000 C   0  0  0  0  0  0  0  0  0  0  0  0
    0.0000    0.0000    0.0000 C   0  0  0  0  0  0  0  0  0  0  0  0
    0.0000    0.0000    0.0000 C   0  0  0  0  0  0  0  0  0  0  0  0
    0.0000    0.0000    0.0000 C   0  0  0  0  0  0  0  0  0  0  0  0
    0.0000    0.0000    0.0000 C   0  0  0  0  0  0  0  0  0  0  0  0
    0.0000    0.0000    0.0000 C   0  0  0  0  0  0  0  0  0  0  0  0
    0.0000    0.0000    0.0000 C   0  0  0  0  0  0  0  0  0  0  0  0
    0.0000    0.0000    0.0000 C   0  0  0  0  0  0  0  0  0  0  0  0
    0.0000    0.0000    0.0000 C   0  0  0  0  0  0  0  0  0  0  0  0
    0.0000    0.0000    0.0000 C   0  0  0  0  0  0  0  0  0  0  0  0
    0.0000    0.0000    0.0000 C   0  0  0  0  0  0  0  0  0  0  0  0
    0.0000    0.0000    0.0000 C   0  0  0  0  0  0  0  0  0  0  0  0
    0.0000    0.0000    0.0000 C   0  0  0  0  0  0  0  0  0  0  0  0
  1  2  1  0
  2  3  1  0
  3  4  1  0
  4  5  1  0
  5  6  1  0
  6  7  1  0
  5  8  1  0
  8  9  2  0
  9 10  1  0
 10 11  2  0
 11 12  1  0
 12 13  1  0
 12 14  2  0
 14 15  1  0
 15 16  2  0
 16 17  1  0
 17 18  1  0
 18 19  1  0
 19 20  2  0
 19 21  1  0
 21 22  1  0
 22 23  1  0
 23 24  1  0
 24 25  1  0
 25 26  1  0
 26 27  1  0
 27 28  2  0
 27 29  1  0
 29 30  1  0
 30 31  1  0
 31 32  2  0
 32 33  1  0
 33 34  2  0
 34 35  1  0
 34 36  1  0
 36 37  2  0
 37 38  1  0
 38 39  2  0
 39 40  1  0
 40 41  1  0
 41 42  1  0
 42 43  1  0
 43 44  1  0
 43 45  1  0
 45 46  1  0
 39 47  1  0
 47 48  2  0
 48 49  1  0
 49 50  2  0
 50 51  1  0
 51 52  2  0
 17 53  1  0
 53 54  2  0
 54 55  1  0
 55 56  2  0
 56 57  1  0
 57 58  2  0
  7  2  1  0
 58  8  1  0
 16 10  1  0
 52 30  1  0
 37 31  1  0
 46 40  1  0
 52 47  1  0
 58 53  1  0
M  END
>  <pIC50>  (344) 
5.61

>  <ChEMBL_ID>  (344) 
CHEMBL2016616

>  <document_journal>  (344) 
J. Med. Chem.

>  <bao_endpoint>  (344) 
BAO_0000190

>  <potential_duplicate>  (344) 
False

>  <uo_units>  (344) 
UO_0000065

>  <canonical_smiles>  (344) 
CN1CCN(CC1)C2=Nc3cc(Cl)ccc3N(NC(=O)CCCCCCC(=O)NN4c5ccc(Cl)cc5N=C(N6CCN(C)CC6)c7ccccc47)c8ccccc28

>  <parent_molecule_chembl_id>  (344) 
CHEMBL2016616

>  <assay_type>  (344) 
B

>  <src_id>  (344) 
1

>  <ligand_efficiency>  (344) 
{u'le': u'0.13', u'bei': u'6.83', u'sei': u'5.48', u'lle': u'-1.86'}

>  <standard_flag>  (344) 
True

>  <molecule_chembl_id>  (344) 
CHEMBL2016616

>  <target_organism>  (344) 
Homo sapiens

>  <standard_units>  (344) 
nM

>  <record_id>  (344) 
1634041

>  <document_chembl_id>  (344) 
CHEMBL2016514

>  <bao_format>  (344) 
BAO_0000219

>  <data_validity_description>  (344) 
None

>  <activity_id>  (344) 
10858702

>  <standard_type>  (344) 
IC50

>  <target_chembl_id>  (344) 
CHEMBL217

>  <data_validity_comment>  (344) 
None

>  <published_value>  (344) 
2440

>  <document_year>  (344) 
2012

>  <target_pref_name>  (344) 
Dopamine D2 receptor

>  <assay_chembl_id>  (344) 
CHEMBL2020816

>  <standard_relation>  (344) 
=

>  <assay_description>  (344) 
Inhibition of human dopamine D2L receptor expressed in intact CHO FlpIn cells assessed as inhibition of receptor-mediated mediated ERK1/2 phosphorylation by Alpha-Screen plate-based assay

>  <published_relation>  (344) 
=

>  <standard_value>  (344) 
2440

>  <qudt_units>  (344) 
http://www.openphacts.org/units/Nanomolar

>  <target_tax_id>  (344) 
9606

>  <bao_label>  (344) 
cell-based format

>  <published_units>  (344) 
nM

>  <pchembl_value>  (344) 
5.61

>  <published_type>  (344) 
IC50

>  <activity_comment>  (344) 
None

$$$$

     RDKit          

 56 63  0  0  0  0  0  0  0  0999 V2000
    0.0000    0.0000    0.0000 C   0  0  0  0  0  0  0  0  0  0  0  0
    0.0000    0.0000    0.0000 N   0  0  0  0  0  0  0  0  0  0  0  0
    0.0000    0.0000    0.0000 C   0  0  0  0  0  0  0  0  0  0  0  0
    0.0000    0.0000    0.0000 C   0  0  0  0  0  0  0  0  0  0  0  0
    0.0000    0.0000    0.0000 N   0  0  0  0  0  0  0  0  0  0  0  0
    0.0000    0.0000    0.0000 C   0  0  0  0  0  0  0  0  0  0  0  0
    0.0000    0.0000    0.0000 C   0  0  0  0  0  0  0  0  0  0  0  0
    0.0000    0.0000    0.0000 C   0  0  0  0  0  0  0  0  0  0  0  0
    0.0000    0.0000    0.0000 N   0  0  0  0  0  0  0  0  0  0  0  0
    0.0000    0.0000    0.0000 C   0  0  0  0  0  0  0  0  0  0  0  0
    0.0000    0.0000    0.0000 C   0  0  0  0  0  0  0  0  0  0  0  0
    0.0000    0.0000    0.0000 C   0  0  0  0  0  0  0  0  0  0  0  0
    0.0000    0.0000    0.0000 Cl  0  0  0  0  0  0  0  0  0  0  0  0
    0.0000    0.0000    0.0000 C   0  0  0  0  0  0  0  0  0  0  0  0
    0.0000    0.0000    0.0000 C   0  0  0  0  0  0  0  0  0  0  0  0
    0.0000    0.0000    0.0000 C   0  0  0  0  0  0  0  0  0  0  0  0
    0.0000    0.0000    0.0000 N   0  0  0  0  0  0  0  0  0  0  0  0
    0.0000    0.0000    0.0000 N   0  0  0  0  0  0  0  0  0  0  0  0
    0.0000    0.0000    0.0000 C   0  0  0  0  0  0  0  0  0  0  0  0
    0.0000    0.0000    0.0000 O   0  0  0  0  0  0  0  0  0  0  0  0
    0.0000    0.0000    0.0000 C   0  0  0  0  0  0  0  0  0  0  0  0
    0.0000    0.0000    0.0000 C   0  0  0  0  0  0  0  0  0  0  0  0
    0.0000    0.0000    0.0000 C   0  0  0  0  0  0  0  0  0  0  0  0
    0.0000    0.0000    0.0000 C   0  0  0  0  0  0  0  0  0  0  0  0
    0.0000    0.0000    0.0000 C   0  0  0  0  0  0  0  0  0  0  0  0
    0.0000    0.0000    0.0000 O   0  0  0  0  0  0  0  0  0  0  0  0
    0.0000    0.0000    0.0000 N   0  0  0  0  0  0  0  0  0  0  0  0
    0.0000    0.0000    0.0000 N   0  0  0  0  0  0  0  0  0  0  0  0
    0.0000    0.0000    0.0000 C   0  0  0  0  0  0  0  0  0  0  0  0
    0.0000    0.0000    0.0000 C   0  0  0  0  0  0  0  0  0  0  0  0
    0.0000    0.0000    0.0000 C   0  0  0  0  0  0  0  0  0  0  0  0
    0.0000    0.0000    0.0000 C   0  0  0  0  0  0  0  0  0  0  0  0
    0.0000    0.0000    0.0000 Cl  0  0  0  0  0  0  0  0  0  0  0  0
    0.0000    0.0000    0.0000 C   0  0  0  0  0  0  0  0  0  0  0  0
    0.0000    0.0000    0.0000 C   0  0  0  0  0  0  0  0  0  0  0  0
    0.0000    0.0000    0.0000 N   0  0  0  0  0  0  0  0  0  0  0  0
    0.0000    0.0000    0.0000 C   0  0  0  0  0  0  0  0  0  0  0  0
    0.0000    0.0000    0.0000 N   0  0  0  0  0  0  0  0  0  0  0  0
    0.0000    0.0000    0.0000 C   0  0  0  0  0  0  0  0  0  0  0  0
    0.0000    0.0000    0.0000 C   0  0  0  0  0  0  0  0  0  0  0  0
    0.0000    0.0000    0.0000 N   0  0  0  0  0  0  0  0  0  0  0  0
    0.0000    0.0000    0.0000 C   0  0  0  0  0  0  0  0  0  0  0  0
    0.0000    0.0000    0.0000 C   0  0  0  0  0  0  0  0  0  0  0  0
    0.0000    0.0000    0.0000 C   0  0  0  0  0  0  0  0  0  0  0  0
    0.0000    0.0000    0.0000 C   0  0  0  0  0  0  0  0  0  0  0  0
    0.0000    0.0000    0.0000 C   0  0  0  0  0  0  0  0  0  0  0  0
    0.0000    0.0000    0.0000 C   0  0  0  0  0  0  0  0  0  0  0  0
    0.0000    0.0000    0.0000 C   0  0  0  0  0  0  0  0  0  0  0  0
    0.0000    0.0000    0.0000 C   0  0  0  0  0  0  0  0  0  0  0  0
    0.0000    0.0000    0.0000 C   0  0  0  0  0  0  0  0  0  0  0  0
    0.0000    0.0000    0.0000 C   0  0  0  0  0  0  0  0  0  0  0  0
    0.0000    0.0000    0.0000 C   0  0  0  0  0  0  0  0  0  0  0  0
    0.0000    0.0000    0.0000 C   0  0  0  0  0  0  0  0  0  0  0  0
    0.0000    0.0000    0.0000 C   0  0  0  0  0  0  0  0  0  0  0  0
    0.0000    0.0000    0.0000 C   0  0  0  0  0  0  0  0  0  0  0  0
    0.0000    0.0000    0.0000 C   0  0  0  0  0  0  0  0  0  0  0  0
  1  2  1  0
  2  3  1  0
  3  4  1  0
  4  5  1  0
  5  6  1  0
  6  7  1  0
  5  8  1  0
  8  9  2  0
  9 10  1  0
 10 11  2  0
 11 12  1  0
 12 13  1  0
 12 14  2  0
 14 15  1  0
 15 16  2  0
 16 17  1  0
 17 18  1  0
 18 19  1  0
 19 20  2  0
 19 21  1  0
 21 22  1  0
 22 23  1  0
 23 24  1  0
 24 25  1  0
 25 26  2  0
 25 27  1  0
 27 28  1  0
 28 29  1  0
 29 30  2  0
 30 31  1  0
 31 32  2  0
 32 33  1  0
 32 34  1  0
 34 35  2  0
 35 36  1  0
 36 37  2  0
 37 38  1  0
 38 39  1  0
 39 40  1  0
 40 41  1  0
 41 42  1  0
 41 43  1  0
 43 44  1  0
 37 45  1  0
 45 46  2  0
 46 47  1  0
 47 48  2  0
 48 49  1  0
 49 50  2  0
 17 51  1  0
 51 52  2  0
 52 53  1  0
 53 54  2  0
 54 55  1  0
 55 56  2  0
  7  2  1  0
 56  8  1  0
 16 10  1  0
 50 28  1  0
 35 29  1  0
 44 38  1  0
 50 45  1  0
 56 51  1  0
M  END
>  <pIC50>  (345) 
5.685

>  <ChEMBL_ID>  (345) 
CHEMBL2016615

>  <document_journal>  (345) 
J. Med. Chem.

>  <bao_endpoint>  (345) 
BAO_0000190

>  <potential_duplicate>  (345) 
False

>  <uo_units>  (345) 
UO_0000065

>  <canonical_smiles>  (345) 
CN1CCN(CC1)C2=Nc3cc(Cl)ccc3N(NC(=O)CCCCC(=O)NN4c5ccc(Cl)cc5N=C(N6CCN(C)CC6)c7ccccc47)c8ccccc28

>  <parent_molecule_chembl_id>  (345) 
CHEMBL2016615

>  <assay_type>  (345) 
B

>  <src_id>  (345) 
1

>  <ligand_efficiency>  (345) 
{u'le': u'0.14', u'bei': u'7.16', u'sei': u'5.55', u'lle': u'-0.88'}

>  <standard_flag>  (345) 
True

>  <molecule_chembl_id>  (345) 
CHEMBL2016615

>  <target_organism>  (345) 
Homo sapiens

>  <standard_units>  (345) 
nM

>  <record_id>  (345) 
1634040

>  <document_chembl_id>  (345) 
CHEMBL2016514

>  <bao_format>  (345) 
BAO_0000219

>  <data_validity_description>  (345) 
None

>  <activity_id>  (345) 
10858703

>  <standard_type>  (345) 
IC50

>  <target_chembl_id>  (345) 
CHEMBL217

>  <data_validity_comment>  (345) 
None

>  <published_value>  (345) 
2078

>  <document_year>  (345) 
2012

>  <target_pref_name>  (345) 
Dopamine D2 receptor

>  <assay_chembl_id>  (345) 
CHEMBL2020816

>  <standard_relation>  (345) 
=

>  <assay_description>  (345) 
Inhibition of human dopamine D2L receptor expressed in intact CHO FlpIn cells assessed as inhibition of receptor-mediated mediated ERK1/2 phosphorylation by Alpha-Screen plate-based assay

>  <published_relation>  (345) 
=

>  <standard_value>  (345) 
2078

>  <qudt_units>  (345) 
http://www.openphacts.org/units/Nanomolar

>  <target_tax_id>  (345) 
9606

>  <bao_label>  (345) 
cell-based format

>  <published_units>  (345) 
nM

>  <pchembl_value>  (345) 
5.68

>  <published_type>  (345) 
IC50

>  <activity_comment>  (345) 
None

$$$$

     RDKit          

 35 38  0  0  0  0  0  0  0  0999 V2000
    0.0000    0.0000    0.0000 C   0  0  0  0  0  0  0  0  0  0  0  0
    0.0000    0.0000    0.0000 C   0  0  0  0  0  0  0  0  0  0  0  0
    0.0000    0.0000    0.0000 C   0  0  0  0  0  0  0  0  0  0  0  0
    0.0000    0.0000    0.0000 C   0  0  0  0  0  0  0  0  0  0  0  0
    0.0000    0.0000    0.0000 C   0  0  0  0  0  0  0  0  0  0  0  0
    0.0000    0.0000    0.0000 C   0  0  0  0  0  0  0  0  0  0  0  0
    0.0000    0.0000    0.0000 C   0  0  0  0  0  0  0  0  0  0  0  0
    0.0000    0.0000    0.0000 C   0  0  0  0  0  0  0  0  0  0  0  0
    0.0000    0.0000    0.0000 C   0  0  0  0  0  0  0  0  0  0  0  0
    0.0000    0.0000    0.0000 C   0  0  0  0  0  0  0  0  0  0  0  0
    0.0000    0.0000    0.0000 O   0  0  0  0  0  0  0  0  0  0  0  0
    0.0000    0.0000    0.0000 N   0  0  0  0  0  0  0  0  0  0  0  0
    0.0000    0.0000    0.0000 N   0  0  0  0  0  0  0  0  0  0  0  0
    0.0000    0.0000    0.0000 C   0  0  0  0  0  0  0  0  0  0  0  0
    0.0000    0.0000    0.0000 C   0  0  0  0  0  0  0  0  0  0  0  0
    0.0000    0.0000    0.0000 C   0  0  0  0  0  0  0  0  0  0  0  0
    0.0000    0.0000    0.0000 C   0  0  0  0  0  0  0  0  0  0  0  0
    0.0000    0.0000    0.0000 Cl  0  0  0  0  0  0  0  0  0  0  0  0
    0.0000    0.0000    0.0000 C   0  0  0  0  0  0  0  0  0  0  0  0
    0.0000    0.0000    0.0000 C   0  0  0  0  0  0  0  0  0  0  0  0
    0.0000    0.0000    0.0000 N   0  0  0  0  0  0  0  0  0  0  0  0
    0.0000    0.0000    0.0000 C   0  0  0  0  0  0  0  0  0  0  0  0
    0.0000    0.0000    0.0000 N   0  0  0  0  0  0  0  0  0  0  0  0
    0.0000    0.0000    0.0000 C   0  0  0  0  0  0  0  0  0  0  0  0
    0.0000    0.0000    0.0000 C   0  0  0  0  0  0  0  0  0  0  0  0
    0.0000    0.0000    0.0000 N   0  0  0  0  0  0  0  0  0  0  0  0
    0.0000    0.0000    0.0000 C   0  0  0  0  0  0  0  0  0  0  0  0
    0.0000    0.0000    0.0000 C   0  0  0  0  0  0  0  0  0  0  0  0
    0.0000    0.0000    0.0000 C   0  0  0  0  0  0  0  0  0  0  0  0
    0.0000    0.0000    0.0000 C   0  0  0  0  0  0  0  0  0  0  0  0
    0.0000    0.0000    0.0000 C   0  0  0  0  0  0  0  0  0  0  0  0
    0.0000    0.0000    0.0000 C   0  0  0  0  0  0  0  0  0  0  0  0
    0.0000    0.0000    0.0000 C   0  0  0  0  0  0  0  0  0  0  0  0
    0.0000    0.0000    0.0000 C   0  0  0  0  0  0  0  0  0  0  0  0
    0.0000    0.0000    0.0000 C   0  0  0  0  0  0  0  0  0  0  0  0
  1  2  1  0
  2  3  1  0
  3  4  1  0
  4  5  1  0
  5  6  1  0
  6  7  1  0
  7  8  1  0
  8  9  1  0
  9 10  1  0
 10 11  2  0
 10 12  1  0
 12 13  1  0
 13 14  1  0
 14 15  2  0
 15 16  1  0
 16 17  2  0
 17 18  1  0
 17 19  1  0
 19 20  2  0
 20 21  1  0
 21 22  2  0
 22 23  1  0
 23 24  1  0
 24 25  1  0
 25 26  1  0
 26 27  1  0
 26 28  1  0
 28 29  1  0
 22 30  1  0
 30 31  2  0
 31 32  1  0
 32 33  2  0
 33 34  1  0
 34 35  2  0
 35 13  1  0
 20 14  1  0
 29 23  1  0
 35 30  1  0
M  END
>  <pIC50>  (346) 
5.05

>  <ChEMBL_ID>  (346) 
CHEMBL2016614

>  <document_journal>  (346) 
J. Med. Chem.

>  <bao_endpoint>  (346) 
BAO_0000190

>  <potential_duplicate>  (346) 
False

>  <uo_units>  (346) 
UO_0000065

>  <canonical_smiles>  (346) 
CCCCCCCCCC(=O)NN1c2ccc(Cl)cc2N=C(N3CCN(C)CC3)c4ccccc14

>  <parent_molecule_chembl_id>  (346) 
CHEMBL2016614

>  <assay_type>  (346) 
B

>  <src_id>  (346) 
1

>  <ligand_efficiency>  (346) 
{u'le': u'0.2', u'bei': u'10.18', u'sei': u'9.86', u'lle': u'-1.61'}

>  <standard_flag>  (346) 
True

>  <molecule_chembl_id>  (346) 
CHEMBL2016614

>  <target_organism>  (346) 
Homo sapiens

>  <standard_units>  (346) 
nM

>  <record_id>  (346) 
1634039

>  <document_chembl_id>  (346) 
CHEMBL2016514

>  <bao_format>  (346) 
BAO_0000219

>  <data_validity_description>  (346) 
None

>  <activity_id>  (346) 
10858704

>  <standard_type>  (346) 
IC50

>  <target_chembl_id>  (346) 
CHEMBL217

>  <data_validity_comment>  (346) 
None

>  <published_value>  (346) 
8939

>  <document_year>  (346) 
2012

>  <target_pref_name>  (346) 
Dopamine D2 receptor

>  <assay_chembl_id>  (346) 
CHEMBL2020816

>  <standard_relation>  (346) 
=

>  <assay_description>  (346) 
Inhibition of human dopamine D2L receptor expressed in intact CHO FlpIn cells assessed as inhibition of receptor-mediated mediated ERK1/2 phosphorylation by Alpha-Screen plate-based assay

>  <published_relation>  (346) 
=

>  <standard_value>  (346) 
8939

>  <qudt_units>  (346) 
http://www.openphacts.org/units/Nanomolar

>  <target_tax_id>  (346) 
9606

>  <bao_label>  (346) 
cell-based format

>  <published_units>  (346) 
nM

>  <pchembl_value>  (346) 
5.05

>  <published_type>  (346) 
IC50

>  <activity_comment>  (346) 
None

$$$$

     RDKit          

 56 63  0  0  0  0  0  0  0  0999 V2000
    0.0000    0.0000    0.0000 C   0  0  0  0  0  0  0  0  0  0  0  0
    0.0000    0.0000    0.0000 N   0  0  0  0  0  0  0  0  0  0  0  0
    0.0000    0.0000    0.0000 C   0  0  0  0  0  0  0  0  0  0  0  0
    0.0000    0.0000    0.0000 C   0  0  0  0  0  0  0  0  0  0  0  0
    0.0000    0.0000    0.0000 N   0  0  0  0  0  0  0  0  0  0  0  0
    0.0000    0.0000    0.0000 C   0  0  0  0  0  0  0  0  0  0  0  0
    0.0000    0.0000    0.0000 C   0  0  0  0  0  0  0  0  0  0  0  0
    0.0000    0.0000    0.0000 C   0  0  0  0  0  0  0  0  0  0  0  0
    0.0000    0.0000    0.0000 N   0  0  0  0  0  0  0  0  0  0  0  0
    0.0000    0.0000    0.0000 C   0  0  0  0  0  0  0  0  0  0  0  0
    0.0000    0.0000    0.0000 C   0  0  0  0  0  0  0  0  0  0  0  0
    0.0000    0.0000    0.0000 C   0  0  0  0  0  0  0  0  0  0  0  0
    0.0000    0.0000    0.0000 Cl  0  0  0  0  0  0  0  0  0  0  0  0
    0.0000    0.0000    0.0000 C   0  0  0  0  0  0  0  0  0  0  0  0
    0.0000    0.0000    0.0000 C   0  0  0  0  0  0  0  0  0  0  0  0
    0.0000    0.0000    0.0000 C   0  0  0  0  0  0  0  0  0  0  0  0
    0.0000    0.0000    0.0000 N   0  0  0  0  0  0  0  0  0  0  0  0
    0.0000    0.0000    0.0000 C   0  0  0  0  0  0  0  0  0  0  0  0
    0.0000    0.0000    0.0000 O   0  0  0  0  0  0  0  0  0  0  0  0
    0.0000    0.0000    0.0000 C   0  0  0  0  0  0  0  0  0  0  0  0
    0.0000    0.0000    0.0000 C   0  0  0  0  0  0  0  0  0  0  0  0
    0.0000    0.0000    0.0000 C   0  0  0  0  0  0  0  0  0  0  0  0
    0.0000    0.0000    0.0000 C   0  0  0  0  0  0  0  0  0  0  0  0
    0.0000    0.0000    0.0000 C   0  0  0  0  0  0  0  0  0  0  0  0
    0.0000    0.0000    0.0000 C   0  0  0  0  0  0  0  0  0  0  0  0
    0.0000    0.0000    0.0000 C   0  0  0  0  0  0  0  0  0  0  0  0
    0.0000    0.0000    0.0000 O   0  0  0  0  0  0  0  0  0  0  0  0
    0.0000    0.0000    0.0000 N   0  0  0  0  0  0  0  0  0  0  0  0
    0.0000    0.0000    0.0000 C   0  0  0  0  0  0  0  0  0  0  0  0
    0.0000    0.0000    0.0000 C   0  0  0  0  0  0  0  0  0  0  0  0
    0.0000    0.0000    0.0000 C   0  0  0  0  0  0  0  0  0  0  0  0
    0.0000    0.0000    0.0000 C   0  0  0  0  0  0  0  0  0  0  0  0
    0.0000    0.0000    0.0000 Cl  0  0  0  0  0  0  0  0  0  0  0  0
    0.0000    0.0000    0.0000 C   0  0  0  0  0  0  0  0  0  0  0  0
    0.0000    0.0000    0.0000 C   0  0  0  0  0  0  0  0  0  0  0  0
    0.0000    0.0000    0.0000 N   0  0  0  0  0  0  0  0  0  0  0  0
    0.0000    0.0000    0.0000 C   0  0  0  0  0  0  0  0  0  0  0  0
    0.0000    0.0000    0.0000 N   0  0  0  0  0  0  0  0  0  0  0  0
    0.0000    0.0000    0.0000 C   0  0  0  0  0  0  0  0  0  0  0  0
    0.0000    0.0000    0.0000 C   0  0  0  0  0  0  0  0  0  0  0  0
    0.0000    0.0000    0.0000 N   0  0  0  0  0  0  0  0  0  0  0  0
    0.0000    0.0000    0.0000 C   0  0  0  0  0  0  0  0  0  0  0  0
    0.0000    0.0000    0.0000 C   0  0  0  0  0  0  0  0  0  0  0  0
    0.0000    0.0000    0.0000 C   0  0  0  0  0  0  0  0  0  0  0  0
    0.0000    0.0000    0.0000 C   0  0  0  0  0  0  0  0  0  0  0  0
    0.0000    0.0000    0.0000 C   0  0  0  0  0  0  0  0  0  0  0  0
    0.0000    0.0000    0.0000 C   0  0  0  0  0  0  0  0  0  0  0  0
    0.0000    0.0000    0.0000 C   0  0  0  0  0  0  0  0  0  0  0  0
    0.0000    0.0000    0.0000 C   0  0  0  0  0  0  0  0  0  0  0  0
    0.0000    0.0000    0.0000 C   0  0  0  0  0  0  0  0  0  0  0  0
    0.0000    0.0000    0.0000 C   0  0  0  0  0  0  0  0  0  0  0  0
    0.0000    0.0000    0.0000 C   0  0  0  0  0  0  0  0  0  0  0  0
    0.0000    0.0000    0.0000 C   0  0  0  0  0  0  0  0  0  0  0  0
    0.0000    0.0000    0.0000 C   0  0  0  0  0  0  0  0  0  0  0  0
    0.0000    0.0000    0.0000 C   0  0  0  0  0  0  0  0  0  0  0  0
    0.0000    0.0000    0.0000 C   0  0  0  0  0  0  0  0  0  0  0  0
  1  2  1  0
  2  3  1  0
  3  4  1  0
  4  5  1  0
  5  6  1  0
  6  7  1  0
  5  8  1  0
  8  9  2  0
  9 10  1  0
 10 11  2  0
 11 12  1  0
 12 13  1  0
 12 14  2  0
 14 15  1  0
 15 16  2  0
 16 17  1  0
 17 18  1  0
 18 19  2  0
 18 20  1  0
 20 21  1  0
 21 22  1  0
 22 23  1  0
 23 24  1  0
 24 25  1  0
 25 26  1  0
 26 27  2  0
 26 28  1  0
 28 29  1  0
 29 30  2  0
 30 31  1  0
 31 32  2  0
 32 33  1  0
 32 34  1  0
 34 35  2  0
 35 36  1  0
 36 37  2  0
 37 38  1  0
 38 39  1  0
 39 40  1  0
 40 41  1  0
 41 42  1  0
 41 43  1  0
 43 44  1  0
 37 45  1  0
 45 46  2  0
 46 47  1  0
 47 48  2  0
 48 49  1  0
 49 50  2  0
 17 51  1  0
 51 52  2  0
 52 53  1  0
 53 54  2  0
 54 55  1  0
 55 56  2  0
  7  2  1  0
 56  8  1  0
 16 10  1  0
 50 28  1  0
 35 29  1  0
 44 38  1  0
 50 45  1  0
 56 51  1  0
M  END
>  <pIC50>  (347) 
5.665

>  <ChEMBL_ID>  (347) 
CHEMBL2016608

>  <document_journal>  (347) 
J. Med. Chem.

>  <bao_endpoint>  (347) 
BAO_0000190

>  <potential_duplicate>  (347) 
False

>  <uo_units>  (347) 
UO_0000065

>  <canonical_smiles>  (347) 
CN1CCN(CC1)C2=Nc3cc(Cl)ccc3N(C(=O)CCCCCCC(=O)N4c5ccc(Cl)cc5N=C(N6CCN(C)CC6)c7ccccc47)c8ccccc28

>  <parent_molecule_chembl_id>  (347) 
CHEMBL2016608

>  <assay_type>  (347) 
B

>  <src_id>  (347) 
1

>  <ligand_efficiency>  (347) 
{u'le': u'0.14', u'bei': u'7.04', u'sei': u'7.12', u'lle': u'-1.86'}

>  <standard_flag>  (347) 
True

>  <molecule_chembl_id>  (347) 
CHEMBL2016608

>  <target_organism>  (347) 
Homo sapiens

>  <standard_units>  (347) 
nM

>  <record_id>  (347) 
1634033

>  <document_chembl_id>  (347) 
CHEMBL2016514

>  <bao_format>  (347) 
BAO_0000219

>  <data_validity_description>  (347) 
None

>  <activity_id>  (347) 
10858710

>  <standard_type>  (347) 
IC50

>  <target_chembl_id>  (347) 
CHEMBL217

>  <data_validity_comment>  (347) 
None

>  <published_value>  (347) 
2662

>  <document_year>  (347) 
2012

>  <target_pref_name>  (347) 
Dopamine D2 receptor

>  <assay_chembl_id>  (347) 
CHEMBL2020816

>  <standard_relation>  (347) 
=

>  <assay_description>  (347) 
Inhibition of human dopamine D2L receptor expressed in intact CHO FlpIn cells assessed as inhibition of receptor-mediated mediated ERK1/2 phosphorylation by Alpha-Screen plate-based assay

>  <published_relation>  (347) 
=

>  <standard_value>  (347) 
2662

>  <qudt_units>  (347) 
http://www.openphacts.org/units/Nanomolar

>  <target_tax_id>  (347) 
9606

>  <bao_label>  (347) 
cell-based format

>  <published_units>  (347) 
nM

>  <pchembl_value>  (347) 
5.58

>  <published_type>  (347) 
IC50

>  <activity_comment>  (347) 
None

$$$$

     RDKit          

 34 37  0  0  0  0  0  0  0  0999 V2000
    0.0000    0.0000    0.0000 C   0  0  0  0  0  0  0  0  0  0  0  0
    0.0000    0.0000    0.0000 C   0  0  0  0  0  0  0  0  0  0  0  0
    0.0000    0.0000    0.0000 C   0  0  0  0  0  0  0  0  0  0  0  0
    0.0000    0.0000    0.0000 C   0  0  0  0  0  0  0  0  0  0  0  0
    0.0000    0.0000    0.0000 C   0  0  0  0  0  0  0  0  0  0  0  0
    0.0000    0.0000    0.0000 C   0  0  0  0  0  0  0  0  0  0  0  0
    0.0000    0.0000    0.0000 C   0  0  0  0  0  0  0  0  0  0  0  0
    0.0000    0.0000    0.0000 C   0  0  0  0  0  0  0  0  0  0  0  0
    0.0000    0.0000    0.0000 C   0  0  0  0  0  0  0  0  0  0  0  0
    0.0000    0.0000    0.0000 C   0  0  0  0  0  0  0  0  0  0  0  0
    0.0000    0.0000    0.0000 O   0  0  0  0  0  0  0  0  0  0  0  0
    0.0000    0.0000    0.0000 N   0  0  0  0  0  0  0  0  0  0  0  0
    0.0000    0.0000    0.0000 C   0  0  0  0  0  0  0  0  0  0  0  0
    0.0000    0.0000    0.0000 C   0  0  0  0  0  0  0  0  0  0  0  0
    0.0000    0.0000    0.0000 C   0  0  0  0  0  0  0  0  0  0  0  0
    0.0000    0.0000    0.0000 C   0  0  0  0  0  0  0  0  0  0  0  0
    0.0000    0.0000    0.0000 Cl  0  0  0  0  0  0  0  0  0  0  0  0
    0.0000    0.0000    0.0000 C   0  0  0  0  0  0  0  0  0  0  0  0
    0.0000    0.0000    0.0000 C   0  0  0  0  0  0  0  0  0  0  0  0
    0.0000    0.0000    0.0000 N   0  0  0  0  0  0  0  0  0  0  0  0
    0.0000    0.0000    0.0000 C   0  0  0  0  0  0  0  0  0  0  0  0
    0.0000    0.0000    0.0000 N   0  0  0  0  0  0  0  0  0  0  0  0
    0.0000    0.0000    0.0000 C   0  0  0  0  0  0  0  0  0  0  0  0
    0.0000    0.0000    0.0000 C   0  0  0  0  0  0  0  0  0  0  0  0
    0.0000    0.0000    0.0000 N   0  0  0  0  0  0  0  0  0  0  0  0
    0.0000    0.0000    0.0000 C   0  0  0  0  0  0  0  0  0  0  0  0
    0.0000    0.0000    0.0000 C   0  0  0  0  0  0  0  0  0  0  0  0
    0.0000    0.0000    0.0000 C   0  0  0  0  0  0  0  0  0  0  0  0
    0.0000    0.0000    0.0000 C   0  0  0  0  0  0  0  0  0  0  0  0
    0.0000    0.0000    0.0000 C   0  0  0  0  0  0  0  0  0  0  0  0
    0.0000    0.0000    0.0000 C   0  0  0  0  0  0  0  0  0  0  0  0
    0.0000    0.0000    0.0000 C   0  0  0  0  0  0  0  0  0  0  0  0
    0.0000    0.0000    0.0000 C   0  0  0  0  0  0  0  0  0  0  0  0
    0.0000    0.0000    0.0000 C   0  0  0  0  0  0  0  0  0  0  0  0
  1  2  1  0
  2  3  1  0
  3  4  1  0
  4  5  1  0
  5  6  1  0
  6  7  1  0
  7  8  1  0
  8  9  1  0
  9 10  1  0
 10 11  2  0
 10 12  1  0
 12 13  1  0
 13 14  2  0
 14 15  1  0
 15 16  2  0
 16 17  1  0
 16 18  1  0
 18 19  2  0
 19 20  1  0
 20 21  2  0
 21 22  1  0
 22 23  1  0
 23 24  1  0
 24 25  1  0
 25 26  1  0
 25 27  1  0
 27 28  1  0
 21 29  1  0
 29 30  2  0
 30 31  1  0
 31 32  2  0
 32 33  1  0
 33 34  2  0
 34 12  1  0
 19 13  1  0
 28 22  1  0
 34 29  1  0
M  END
>  <pIC50>  (348) 
6.11

>  <ChEMBL_ID>  (348) 
CHEMBL2016607

>  <document_journal>  (348) 
J. Med. Chem.

>  <bao_endpoint>  (348) 
BAO_0000190

>  <potential_duplicate>  (348) 
False

>  <uo_units>  (348) 
UO_0000065

>  <canonical_smiles>  (348) 
CCCCCCCCCC(=O)N1c2ccc(Cl)cc2N=C(N3CCN(C)CC3)c4ccccc14

>  <parent_molecule_chembl_id>  (348) 
CHEMBL2016607

>  <assay_type>  (348) 
B

>  <src_id>  (348) 
1

>  <ligand_efficiency>  (348) 
{u'le': u'0.25', u'bei': u'12.7', u'sei': u'15.61', u'lle': u'-0.53'}

>  <standard_flag>  (348) 
True

>  <molecule_chembl_id>  (348) 
CHEMBL2016607

>  <target_organism>  (348) 
Homo sapiens

>  <standard_units>  (348) 
nM

>  <record_id>  (348) 
1634032

>  <document_chembl_id>  (348) 
CHEMBL2016514

>  <bao_format>  (348) 
BAO_0000219

>  <data_validity_description>  (348) 
None

>  <activity_id>  (348) 
10858711

>  <standard_type>  (348) 
IC50

>  <target_chembl_id>  (348) 
CHEMBL217

>  <data_validity_comment>  (348) 
None

>  <published_value>  (348) 
776

>  <document_year>  (348) 
2012

>  <target_pref_name>  (348) 
Dopamine D2 receptor

>  <assay_chembl_id>  (348) 
CHEMBL2020816

>  <standard_relation>  (348) 
=

>  <assay_description>  (348) 
Inhibition of human dopamine D2L receptor expressed in intact CHO FlpIn cells assessed as inhibition of receptor-mediated mediated ERK1/2 phosphorylation by Alpha-Screen plate-based assay

>  <published_relation>  (348) 
=

>  <standard_value>  (348) 
776

>  <qudt_units>  (348) 
http://www.openphacts.org/units/Nanomolar

>  <target_tax_id>  (348) 
9606

>  <bao_label>  (348) 
cell-based format

>  <published_units>  (348) 
nM

>  <pchembl_value>  (348) 
6.11

>  <published_type>  (348) 
IC50

>  <activity_comment>  (348) 
None

$$$$

     RDKit          

 72 79  0  0  0  0  0  0  0  0999 V2000
    0.0000    0.0000    0.0000 Cl  0  0  0  0  0  0  0  0  0  0  0  0
    0.0000    0.0000    0.0000 C   0  0  0  0  0  0  0  0  0  0  0  0
    0.0000    0.0000    0.0000 C   0  0  0  0  0  0  0  0  0  0  0  0
    0.0000    0.0000    0.0000 C   0  0  0  0  0  0  0  0  0  0  0  0
    0.0000    0.0000    0.0000 C   0  0  0  0  0  0  0  0  0  0  0  0
    0.0000    0.0000    0.0000 N   0  0  0  0  0  0  0  0  0  0  0  0
    0.0000    0.0000    0.0000 C   0  0  0  0  0  0  0  0  0  0  0  0
    0.0000    0.0000    0.0000 C   0  0  0  0  0  0  0  0  0  0  0  0
    0.0000    0.0000    0.0000 C   0  0  0  0  0  0  0  0  0  0  0  0
    0.0000    0.0000    0.0000 C   0  0  0  0  0  0  0  0  0  0  0  0
    0.0000    0.0000    0.0000 C   0  0  0  0  0  0  0  0  0  0  0  0
    0.0000    0.0000    0.0000 C   0  0  0  0  0  0  0  0  0  0  0  0
    0.0000    0.0000    0.0000 C   0  0  0  0  0  0  0  0  0  0  0  0
    0.0000    0.0000    0.0000 N   0  0  0  0  0  0  0  0  0  0  0  0
    0.0000    0.0000    0.0000 C   0  0  0  0  0  0  0  0  0  0  0  0
    0.0000    0.0000    0.0000 C   0  0  0  0  0  0  0  0  0  0  0  0
    0.0000    0.0000    0.0000 N   0  0  0  0  0  0  0  0  0  0  0  0
    0.0000    0.0000    0.0000 C   0  0  0  0  0  0  0  0  0  0  0  0
    0.0000    0.0000    0.0000 C   0  0  0  0  0  0  0  0  0  0  0  0
    0.0000    0.0000    0.0000 N   0  0  0  0  0  0  0  0  0  0  0  0
    0.0000    0.0000    0.0000 C   0  0  0  0  0  0  0  0  0  0  0  0
    0.0000    0.0000    0.0000 C   0  0  0  0  0  0  0  0  0  0  0  0
    0.0000    0.0000    0.0000 C   0  0  0  0  0  0  0  0  0  0  0  0
    0.0000    0.0000    0.0000 N   0  0  0  0  0  0  0  0  0  0  0  0
    0.0000    0.0000    0.0000 C   0  0  0  0  0  0  0  0  0  0  0  0
    0.0000    0.0000    0.0000 O   0  0  0  0  0  0  0  0  0  0  0  0
    0.0000    0.0000    0.0000 C   0  0  0  0  0  0  0  0  0  0  0  0
    0.0000    0.0000    0.0000 C   0  0  0  0  0  0  0  0  0  0  0  0
    0.0000    0.0000    0.0000 C   0  0  0  0  0  0  0  0  0  0  0  0
    0.0000    0.0000    0.0000 C   0  0  0  0  0  0  0  0  0  0  0  0
    0.0000    0.0000    0.0000 C   0  0  0  0  0  0  0  0  0  0  0  0
    0.0000    0.0000    0.0000 C   0  0  0  0  0  0  0  0  0  0  0  0
    0.0000    0.0000    0.0000 C   0  0  0  0  0  0  0  0  0  0  0  0
    0.0000    0.0000    0.0000 C   0  0  0  0  0  0  0  0  0  0  0  0
    0.0000    0.0000    0.0000 C   0  0  0  0  0  0  0  0  0  0  0  0
    0.0000    0.0000    0.0000 C   0  0  0  0  0  0  0  0  0  0  0  0
    0.0000    0.0000    0.0000 C   0  0  0  0  0  0  0  0  0  0  0  0
    0.0000    0.0000    0.0000 C   0  0  0  0  0  0  0  0  0  0  0  0
    0.0000    0.0000    0.0000 C   0  0  0  0  0  0  0  0  0  0  0  0
    0.0000    0.0000    0.0000 C   0  0  0  0  0  0  0  0  0  0  0  0
    0.0000    0.0000    0.0000 C   0  0  0  0  0  0  0  0  0  0  0  0
    0.0000    0.0000    0.0000 C   0  0  0  0  0  0  0  0  0  0  0  0
    0.0000    0.0000    0.0000 C   0  0  0  0  0  0  0  0  0  0  0  0
    0.0000    0.0000    0.0000 O   0  0  0  0  0  0  0  0  0  0  0  0
    0.0000    0.0000    0.0000 N   0  0  0  0  0  0  0  0  0  0  0  0
    0.0000    0.0000    0.0000 C   0  0  0  0  0  0  0  0  0  0  0  0
    0.0000    0.0000    0.0000 C   0  0  0  0  0  0  0  0  0  0  0  0
    0.0000    0.0000    0.0000 C   0  0  0  0  0  0  0  0  0  0  0  0
    0.0000    0.0000    0.0000 N   0  0  0  0  0  0  0  0  0  0  0  0
    0.0000    0.0000    0.0000 C   0  0  0  0  0  0  0  0  0  0  0  0
    0.0000    0.0000    0.0000 C   0  0  0  0  0  0  0  0  0  0  0  0
    0.0000    0.0000    0.0000 N   0  0  0  0  0  0  0  0  0  0  0  0
    0.0000    0.0000    0.0000 C   0  0  0  0  0  0  0  0  0  0  0  0
    0.0000    0.0000    0.0000 C   0  0  0  0  0  0  0  0  0  0  0  0
    0.0000    0.0000    0.0000 C   0  0  0  0  0  0  0  0  0  0  0  0
    0.0000    0.0000    0.0000 N   0  0  0  0  0  0  0  0  0  0  0  0
    0.0000    0.0000    0.0000 C   0  0  0  0  0  0  0  0  0  0  0  0
    0.0000    0.0000    0.0000 C   0  0  0  0  0  0  0  0  0  0  0  0
    0.0000    0.0000    0.0000 C   0  0  0  0  0  0  0  0  0  0  0  0
    0.0000    0.0000    0.0000 Cl  0  0  0  0  0  0  0  0  0  0  0  0
    0.0000    0.0000    0.0000 C   0  0  0  0  0  0  0  0  0  0  0  0
    0.0000    0.0000    0.0000 C   0  0  0  0  0  0  0  0  0  0  0  0
    0.0000    0.0000    0.0000 C   0  0  0  0  0  0  0  0  0  0  0  0
    0.0000    0.0000    0.0000 N   0  0  0  0  0  0  0  0  0  0  0  0
    0.0000    0.0000    0.0000 C   0  0  0  0  0  0  0  0  0  0  0  0
    0.0000    0.0000    0.0000 C   0  0  0  0  0  0  0  0  0  0  0  0
    0.0000    0.0000    0.0000 C   0  0  0  0  0  0  0  0  0  0  0  0
    0.0000    0.0000    0.0000 C   0  0  0  0  0  0  0  0  0  0  0  0
    0.0000    0.0000    0.0000 C   0  0  0  0  0  0  0  0  0  0  0  0
    0.0000    0.0000    0.0000 C   0  0  0  0  0  0  0  0  0  0  0  0
    0.0000    0.0000    0.0000 C   0  0  0  0  0  0  0  0  0  0  0  0
    0.0000    0.0000    0.0000 C   0  0  0  0  0  0  0  0  0  0  0  0
  1  2  1  0
  2  3  2  0
  3  4  1  0
  4  5  2  0
  5  6  1  0
  6  7  1  0
  7  8  2  0
  8  9  1  0
  9 10  2  0
 10 11  1  0
 11 12  2  0
 12 13  1  0
 13 14  2  0
 14 15  1  0
 15 16  2  0
 13 17  1  0
 17 18  1  0
 18 19  1  0
 19 20  1  0
 20 21  1  0
 21 22  1  0
 22 23  1  0
 23 24  1  0
 24 25  1  0
 25 26  2  0
 25 27  1  0
 27 28  1  0
 28 29  1  0
 29 30  1  0
 30 31  1  0
 31 32  1  0
 32 33  1  0
 33 34  1  0
 34 35  1  0
 35 36  1  0
 36 37  1  0
 37 38  1  0
 38 39  1  0
 39 40  1  0
 40 41  1  0
 41 42  1  0
 42 43  1  0
 43 44  2  0
 43 45  1  0
 45 46  1  0
 46 47  1  0
 47 48  1  0
 48 49  1  0
 49 50  1  0
 50 51  1  0
 51 52  1  0
 52 53  1  0
 53 54  1  0
 52 55  1  0
 55 56  2  0
 56 57  1  0
 57 58  2  0
 58 59  1  0
 59 60  1  0
 59 61  2  0
 61 62  1  0
 62 63  2  0
 63 64  1  0
 64 65  1  0
 65 66  2  0
 66 67  1  0
 67 68  2  0
 68 69  1  0
 69 70  2  0
 20 71  1  0
 71 72  1  0
 16  2  1  0
 15  5  1  0
 12  7  1  0
 72 17  1  0
 54 49  1  0
 70 55  1  0
 63 57  1  0
 70 65  1  0
M  END
>  <pIC50>  (349) 
5.11

>  <ChEMBL_ID>  (349) 
CHEMBL2016631

>  <document_journal>  (349) 
J. Med. Chem.

>  <bao_endpoint>  (349) 
BAO_0000190

>  <potential_duplicate>  (349) 
False

>  <uo_units>  (349) 
UO_0000065

>  <canonical_smiles>  (349) 
Clc1ccc2Nc3ccccc3C(=Nc2c1)N4CCN(CCCNC(=O)CCCCCCCCCCCCCCCCC(=O)NCCCN5CCN(CC5)C6=Nc7cc(Cl)ccc7Nc8ccccc68)CC4

>  <parent_molecule_chembl_id>  (349) 
CHEMBL2016631

>  <assay_type>  (349) 
B

>  <src_id>  (349) 
1

>  <ligand_efficiency>  (349) 
{u'le': None, u'bei': u'5.02', u'sei': None, u'lle': None}

>  <standard_flag>  (349) 
True

>  <molecule_chembl_id>  (349) 
CHEMBL2016631

>  <target_organism>  (349) 
Homo sapiens

>  <standard_units>  (349) 
nM

>  <record_id>  (349) 
1634056

>  <document_chembl_id>  (349) 
CHEMBL2016514

>  <bao_format>  (349) 
BAO_0000219

>  <data_validity_description>  (349) 
None

>  <activity_id>  (349) 
10858724

>  <standard_type>  (349) 
IC50

>  <target_chembl_id>  (349) 
CHEMBL217

>  <data_validity_comment>  (349) 
None

>  <published_value>  (349) 
5.11

>  <document_year>  (349) 
2012

>  <target_pref_name>  (349) 
Dopamine D2 receptor

>  <assay_chembl_id>  (349) 
CHEMBL2020816

>  <standard_relation>  (349) 
=

>  <assay_description>  (349) 
Inhibition of human dopamine D2L receptor expressed in intact CHO FlpIn cells assessed as inhibition of receptor-mediated mediated ERK1/2 phosphorylation by Alpha-Screen plate-based assay

>  <published_relation>  (349) 
=

>  <standard_value>  (349) 
7762.47

>  <qudt_units>  (349) 
http://www.openphacts.org/units/Nanomolar

>  <target_tax_id>  (349) 
9606

>  <bao_label>  (349) 
cell-based format

>  <published_units>  (349) 
None

>  <pchembl_value>  (349) 
5.11

>  <published_type>  (349) 
pIC50

>  <activity_comment>  (349) 
None

$$$$

     RDKit          

 68 75  0  0  0  0  0  0  0  0999 V2000
    0.0000    0.0000    0.0000 Cl  0  0  0  0  0  0  0  0  0  0  0  0
    0.0000    0.0000    0.0000 C   0  0  0  0  0  0  0  0  0  0  0  0
    0.0000    0.0000    0.0000 C   0  0  0  0  0  0  0  0  0  0  0  0
    0.0000    0.0000    0.0000 C   0  0  0  0  0  0  0  0  0  0  0  0
    0.0000    0.0000    0.0000 C   0  0  0  0  0  0  0  0  0  0  0  0
    0.0000    0.0000    0.0000 N   0  0  0  0  0  0  0  0  0  0  0  0
    0.0000    0.0000    0.0000 C   0  0  0  0  0  0  0  0  0  0  0  0
    0.0000    0.0000    0.0000 C   0  0  0  0  0  0  0  0  0  0  0  0
    0.0000    0.0000    0.0000 C   0  0  0  0  0  0  0  0  0  0  0  0
    0.0000    0.0000    0.0000 C   0  0  0  0  0  0  0  0  0  0  0  0
    0.0000    0.0000    0.0000 C   0  0  0  0  0  0  0  0  0  0  0  0
    0.0000    0.0000    0.0000 C   0  0  0  0  0  0  0  0  0  0  0  0
    0.0000    0.0000    0.0000 C   0  0  0  0  0  0  0  0  0  0  0  0
    0.0000    0.0000    0.0000 N   0  0  0  0  0  0  0  0  0  0  0  0
    0.0000    0.0000    0.0000 C   0  0  0  0  0  0  0  0  0  0  0  0
    0.0000    0.0000    0.0000 C   0  0  0  0  0  0  0  0  0  0  0  0
    0.0000    0.0000    0.0000 N   0  0  0  0  0  0  0  0  0  0  0  0
    0.0000    0.0000    0.0000 C   0  0  0  0  0  0  0  0  0  0  0  0
    0.0000    0.0000    0.0000 C   0  0  0  0  0  0  0  0  0  0  0  0
    0.0000    0.0000    0.0000 N   0  0  0  0  0  0  0  0  0  0  0  0
    0.0000    0.0000    0.0000 C   0  0  0  0  0  0  0  0  0  0  0  0
    0.0000    0.0000    0.0000 C   0  0  0  0  0  0  0  0  0  0  0  0
    0.0000    0.0000    0.0000 C   0  0  0  0  0  0  0  0  0  0  0  0
    0.0000    0.0000    0.0000 N   0  0  0  0  0  0  0  0  0  0  0  0
    0.0000    0.0000    0.0000 C   0  0  0  0  0  0  0  0  0  0  0  0
    0.0000    0.0000    0.0000 O   0  0  0  0  0  0  0  0  0  0  0  0
    0.0000    0.0000    0.0000 C   0  0  0  0  0  0  0  0  0  0  0  0
    0.0000    0.0000    0.0000 C   0  0  0  0  0  0  0  0  0  0  0  0
    0.0000    0.0000    0.0000 C   0  0  0  0  0  0  0  0  0  0  0  0
    0.0000    0.0000    0.0000 C   0  0  0  0  0  0  0  0  0  0  0  0
    0.0000    0.0000    0.0000 C   0  0  0  0  0  0  0  0  0  0  0  0
    0.0000    0.0000    0.0000 C   0  0  0  0  0  0  0  0  0  0  0  0
    0.0000    0.0000    0.0000 C   0  0  0  0  0  0  0  0  0  0  0  0
    0.0000    0.0000    0.0000 C   0  0  0  0  0  0  0  0  0  0  0  0
    0.0000    0.0000    0.0000 C   0  0  0  0  0  0  0  0  0  0  0  0
    0.0000    0.0000    0.0000 C   0  0  0  0  0  0  0  0  0  0  0  0
    0.0000    0.0000    0.0000 C   0  0  0  0  0  0  0  0  0  0  0  0
    0.0000    0.0000    0.0000 C   0  0  0  0  0  0  0  0  0  0  0  0
    0.0000    0.0000    0.0000 C   0  0  0  0  0  0  0  0  0  0  0  0
    0.0000    0.0000    0.0000 O   0  0  0  0  0  0  0  0  0  0  0  0
    0.0000    0.0000    0.0000 N   0  0  0  0  0  0  0  0  0  0  0  0
    0.0000    0.0000    0.0000 C   0  0  0  0  0  0  0  0  0  0  0  0
    0.0000    0.0000    0.0000 C   0  0  0  0  0  0  0  0  0  0  0  0
    0.0000    0.0000    0.0000 C   0  0  0  0  0  0  0  0  0  0  0  0
    0.0000    0.0000    0.0000 N   0  0  0  0  0  0  0  0  0  0  0  0
    0.0000    0.0000    0.0000 C   0  0  0  0  0  0  0  0  0  0  0  0
    0.0000    0.0000    0.0000 C   0  0  0  0  0  0  0  0  0  0  0  0
    0.0000    0.0000    0.0000 N   0  0  0  0  0  0  0  0  0  0  0  0
    0.0000    0.0000    0.0000 C   0  0  0  0  0  0  0  0  0  0  0  0
    0.0000    0.0000    0.0000 C   0  0  0  0  0  0  0  0  0  0  0  0
    0.0000    0.0000    0.0000 C   0  0  0  0  0  0  0  0  0  0  0  0
    0.0000    0.0000    0.0000 N   0  0  0  0  0  0  0  0  0  0  0  0
    0.0000    0.0000    0.0000 C   0  0  0  0  0  0  0  0  0  0  0  0
    0.0000    0.0000    0.0000 C   0  0  0  0  0  0  0  0  0  0  0  0
    0.0000    0.0000    0.0000 C   0  0  0  0  0  0  0  0  0  0  0  0
    0.0000    0.0000    0.0000 Cl  0  0  0  0  0  0  0  0  0  0  0  0
    0.0000    0.0000    0.0000 C   0  0  0  0  0  0  0  0  0  0  0  0
    0.0000    0.0000    0.0000 C   0  0  0  0  0  0  0  0  0  0  0  0
    0.0000    0.0000    0.0000 C   0  0  0  0  0  0  0  0  0  0  0  0
    0.0000    0.0000    0.0000 N   0  0  0  0  0  0  0  0  0  0  0  0
    0.0000    0.0000    0.0000 C   0  0  0  0  0  0  0  0  0  0  0  0
    0.0000    0.0000    0.0000 C   0  0  0  0  0  0  0  0  0  0  0  0
    0.0000    0.0000    0.0000 C   0  0  0  0  0  0  0  0  0  0  0  0
    0.0000    0.0000    0.0000 C   0  0  0  0  0  0  0  0  0  0  0  0
    0.0000    0.0000    0.0000 C   0  0  0  0  0  0  0  0  0  0  0  0
    0.0000    0.0000    0.0000 C   0  0  0  0  0  0  0  0  0  0  0  0
    0.0000    0.0000    0.0000 C   0  0  0  0  0  0  0  0  0  0  0  0
    0.0000    0.0000    0.0000 C   0  0  0  0  0  0  0  0  0  0  0  0
  1  2  1  0
  2  3  2  0
  3  4  1  0
  4  5  2  0
  5  6  1  0
  6  7  1  0
  7  8  2  0
  8  9  1  0
  9 10  2  0
 10 11  1  0
 11 12  2  0
 12 13  1  0
 13 14  2  0
 14 15  1  0
 15 16  2  0
 13 17  1  0
 17 18  1  0
 18 19  1  0
 19 20  1  0
 20 21  1  0
 21 22  1  0
 22 23  1  0
 23 24  1  0
 24 25  1  0
 25 26  2  0
 25 27  1  0
 27 28  1  0
 28 29  1  0
 29 30  1  0
 30 31  1  0
 31 32  1  0
 32 33  1  0
 33 34  1  0
 34 35  1  0
 35 36  1  0
 36 37  1  0
 37 38  1  0
 38 39  1  0
 39 40  2  0
 39 41  1  0
 41 42  1  0
 42 43  1  0
 43 44  1  0
 44 45  1  0
 45 46  1  0
 46 47  1  0
 47 48  1  0
 48 49  1  0
 49 50  1  0
 48 51  1  0
 51 52  2  0
 52 53  1  0
 53 54  2  0
 54 55  1  0
 55 56  1  0
 55 57  2  0
 57 58  1  0
 58 59  2  0
 59 60  1  0
 60 61  1  0
 61 62  2  0
 62 63  1  0
 63 64  2  0
 64 65  1  0
 65 66  2  0
 20 67  1  0
 67 68  1  0
 16  2  1  0
 15  5  1  0
 12  7  1  0
 68 17  1  0
 50 45  1  0
 66 51  1  0
 59 53  1  0
 66 61  1  0
M  END
>  <pIC50>  (350) 
4.965

>  <ChEMBL_ID>  (350) 
CHEMBL2016630

>  <document_journal>  (350) 
J. Med. Chem.

>  <bao_endpoint>  (350) 
BAO_0000190

>  <potential_duplicate>  (350) 
False

>  <uo_units>  (350) 
UO_0000065

>  <canonical_smiles>  (350) 
Clc1ccc2Nc3ccccc3C(=Nc2c1)N4CCN(CCCNC(=O)CCCCCCCCCCCCC(=O)NCCCN5CCN(CC5)C6=Nc7cc(Cl)ccc7Nc8ccccc68)CC4

>  <parent_molecule_chembl_id>  (350) 
CHEMBL2016630

>  <assay_type>  (350) 
B

>  <src_id>  (350) 
1

>  <ligand_efficiency>  (350) 
{u'le': u'0.1', u'bei': u'5.17', u'sei': u'4.14', u'lle': u'-5'}

>  <standard_flag>  (350) 
True

>  <molecule_chembl_id>  (350) 
CHEMBL2016630

>  <target_organism>  (350) 
Homo sapiens

>  <standard_units>  (350) 
nM

>  <record_id>  (350) 
1634055

>  <document_chembl_id>  (350) 
CHEMBL2016514

>  <bao_format>  (350) 
BAO_0000219

>  <data_validity_description>  (350) 
None

>  <activity_id>  (350) 
10858725

>  <standard_type>  (350) 
IC50

>  <target_chembl_id>  (350) 
CHEMBL217

>  <data_validity_comment>  (350) 
None

>  <published_value>  (350) 
4.97

>  <document_year>  (350) 
2012

>  <target_pref_name>  (350) 
Dopamine D2 receptor

>  <assay_chembl_id>  (350) 
CHEMBL2020816

>  <standard_relation>  (350) 
=

>  <assay_description>  (350) 
Inhibition of human dopamine D2L receptor expressed in intact CHO FlpIn cells assessed as inhibition of receptor-mediated mediated ERK1/2 phosphorylation by Alpha-Screen plate-based assay

>  <published_relation>  (350) 
=

>  <standard_value>  (350) 
10715.19

>  <qudt_units>  (350) 
http://www.openphacts.org/units/Nanomolar

>  <target_tax_id>  (350) 
9606

>  <bao_label>  (350) 
cell-based format

>  <published_units>  (350) 
None

>  <pchembl_value>  (350) 
4.97

>  <published_type>  (350) 
pIC50

>  <activity_comment>  (350) 
None

$$$$

     RDKit          

 66 73  0  0  0  0  0  0  0  0999 V2000
    0.0000    0.0000    0.0000 Cl  0  0  0  0  0  0  0  0  0  0  0  0
    0.0000    0.0000    0.0000 C   0  0  0  0  0  0  0  0  0  0  0  0
    0.0000    0.0000    0.0000 C   0  0  0  0  0  0  0  0  0  0  0  0
    0.0000    0.0000    0.0000 C   0  0  0  0  0  0  0  0  0  0  0  0
    0.0000    0.0000    0.0000 C   0  0  0  0  0  0  0  0  0  0  0  0
    0.0000    0.0000    0.0000 N   0  0  0  0  0  0  0  0  0  0  0  0
    0.0000    0.0000    0.0000 C   0  0  0  0  0  0  0  0  0  0  0  0
    0.0000    0.0000    0.0000 C   0  0  0  0  0  0  0  0  0  0  0  0
    0.0000    0.0000    0.0000 C   0  0  0  0  0  0  0  0  0  0  0  0
    0.0000    0.0000    0.0000 C   0  0  0  0  0  0  0  0  0  0  0  0
    0.0000    0.0000    0.0000 C   0  0  0  0  0  0  0  0  0  0  0  0
    0.0000    0.0000    0.0000 C   0  0  0  0  0  0  0  0  0  0  0  0
    0.0000    0.0000    0.0000 C   0  0  0  0  0  0  0  0  0  0  0  0
    0.0000    0.0000    0.0000 N   0  0  0  0  0  0  0  0  0  0  0  0
    0.0000    0.0000    0.0000 C   0  0  0  0  0  0  0  0  0  0  0  0
    0.0000    0.0000    0.0000 C   0  0  0  0  0  0  0  0  0  0  0  0
    0.0000    0.0000    0.0000 N   0  0  0  0  0  0  0  0  0  0  0  0
    0.0000    0.0000    0.0000 C   0  0  0  0  0  0  0  0  0  0  0  0
    0.0000    0.0000    0.0000 C   0  0  0  0  0  0  0  0  0  0  0  0
    0.0000    0.0000    0.0000 N   0  0  0  0  0  0  0  0  0  0  0  0
    0.0000    0.0000    0.0000 C   0  0  0  0  0  0  0  0  0  0  0  0
    0.0000    0.0000    0.0000 C   0  0  0  0  0  0  0  0  0  0  0  0
    0.0000    0.0000    0.0000 C   0  0  0  0  0  0  0  0  0  0  0  0
    0.0000    0.0000    0.0000 N   0  0  0  0  0  0  0  0  0  0  0  0
    0.0000    0.0000    0.0000 C   0  0  0  0  0  0  0  0  0  0  0  0
    0.0000    0.0000    0.0000 O   0  0  0  0  0  0  0  0  0  0  0  0
    0.0000    0.0000    0.0000 C   0  0  0  0  0  0  0  0  0  0  0  0
    0.0000    0.0000    0.0000 C   0  0  0  0  0  0  0  0  0  0  0  0
    0.0000    0.0000    0.0000 C   0  0  0  0  0  0  0  0  0  0  0  0
    0.0000    0.0000    0.0000 C   0  0  0  0  0  0  0  0  0  0  0  0
    0.0000    0.0000    0.0000 C   0  0  0  0  0  0  0  0  0  0  0  0
    0.0000    0.0000    0.0000 C   0  0  0  0  0  0  0  0  0  0  0  0
    0.0000    0.0000    0.0000 C   0  0  0  0  0  0  0  0  0  0  0  0
    0.0000    0.0000    0.0000 C   0  0  0  0  0  0  0  0  0  0  0  0
    0.0000    0.0000    0.0000 C   0  0  0  0  0  0  0  0  0  0  0  0
    0.0000    0.0000    0.0000 C   0  0  0  0  0  0  0  0  0  0  0  0
    0.0000    0.0000    0.0000 C   0  0  0  0  0  0  0  0  0  0  0  0
    0.0000    0.0000    0.0000 O   0  0  0  0  0  0  0  0  0  0  0  0
    0.0000    0.0000    0.0000 N   0  0  0  0  0  0  0  0  0  0  0  0
    0.0000    0.0000    0.0000 C   0  0  0  0  0  0  0  0  0  0  0  0
    0.0000    0.0000    0.0000 C   0  0  0  0  0  0  0  0  0  0  0  0
    0.0000    0.0000    0.0000 C   0  0  0  0  0  0  0  0  0  0  0  0
    0.0000    0.0000    0.0000 N   0  0  0  0  0  0  0  0  0  0  0  0
    0.0000    0.0000    0.0000 C   0  0  0  0  0  0  0  0  0  0  0  0
    0.0000    0.0000    0.0000 C   0  0  0  0  0  0  0  0  0  0  0  0
    0.0000    0.0000    0.0000 N   0  0  0  0  0  0  0  0  0  0  0  0
    0.0000    0.0000    0.0000 C   0  0  0  0  0  0  0  0  0  0  0  0
    0.0000    0.0000    0.0000 C   0  0  0  0  0  0  0  0  0  0  0  0
    0.0000    0.0000    0.0000 C   0  0  0  0  0  0  0  0  0  0  0  0
    0.0000    0.0000    0.0000 N   0  0  0  0  0  0  0  0  0  0  0  0
    0.0000    0.0000    0.0000 C   0  0  0  0  0  0  0  0  0  0  0  0
    0.0000    0.0000    0.0000 C   0  0  0  0  0  0  0  0  0  0  0  0
    0.0000    0.0000    0.0000 C   0  0  0  0  0  0  0  0  0  0  0  0
    0.0000    0.0000    0.0000 Cl  0  0  0  0  0  0  0  0  0  0  0  0
    0.0000    0.0000    0.0000 C   0  0  0  0  0  0  0  0  0  0  0  0
    0.0000    0.0000    0.0000 C   0  0  0  0  0  0  0  0  0  0  0  0
    0.0000    0.0000    0.0000 C   0  0  0  0  0  0  0  0  0  0  0  0
    0.0000    0.0000    0.0000 N   0  0  0  0  0  0  0  0  0  0  0  0
    0.0000    0.0000    0.0000 C   0  0  0  0  0  0  0  0  0  0  0  0
    0.0000    0.0000    0.0000 C   0  0  0  0  0  0  0  0  0  0  0  0
    0.0000    0.0000    0.0000 C   0  0  0  0  0  0  0  0  0  0  0  0
    0.0000    0.0000    0.0000 C   0  0  0  0  0  0  0  0  0  0  0  0
    0.0000    0.0000    0.0000 C   0  0  0  0  0  0  0  0  0  0  0  0
    0.0000    0.0000    0.0000 C   0  0  0  0  0  0  0  0  0  0  0  0
    0.0000    0.0000    0.0000 C   0  0  0  0  0  0  0  0  0  0  0  0
    0.0000    0.0000    0.0000 C   0  0  0  0  0  0  0  0  0  0  0  0
  1  2  1  0
  2  3  2  0
  3  4  1  0
  4  5  2  0
  5  6  1  0
  6  7  1  0
  7  8  2  0
  8  9  1  0
  9 10  2  0
 10 11  1  0
 11 12  2  0
 12 13  1  0
 13 14  2  0
 14 15  1  0
 15 16  2  0
 13 17  1  0
 17 18  1  0
 18 19  1  0
 19 20  1  0
 20 21  1  0
 21 22  1  0
 22 23  1  0
 23 24  1  0
 24 25  1  0
 25 26  2  0
 25 27  1  0
 27 28  1  0
 28 29  1  0
 29 30  1  0
 30 31  1  0
 31 32  1  0
 32 33  1  0
 33 34  1  0
 34 35  1  0
 35 36  1  0
 36 37  1  0
 37 38  2  0
 37 39  1  0
 39 40  1  0
 40 41  1  0
 41 42  1  0
 42 43  1  0
 43 44  1  0
 44 45  1  0
 45 46  1  0
 46 47  1  0
 47 48  1  0
 46 49  1  0
 49 50  2  0
 50 51  1  0
 51 52  2  0
 52 53  1  0
 53 54  1  0
 53 55  2  0
 55 56  1  0
 56 57  2  0
 57 58  1  0
 58 59  1  0
 59 60  2  0
 60 61  1  0
 61 62  2  0
 62 63  1  0
 63 64  2  0
 20 65  1  0
 65 66  1  0
 16  2  1  0
 15  5  1  0
 12  7  1  0
 66 17  1  0
 48 43  1  0
 64 49  1  0
 57 51  1  0
 64 59  1  0
M  END
>  <pIC50>  (351) 
5.955

>  <ChEMBL_ID>  (351) 
CHEMBL2016629

>  <document_journal>  (351) 
J. Med. Chem.

>  <bao_endpoint>  (351) 
BAO_0000190

>  <potential_duplicate>  (351) 
False

>  <uo_units>  (351) 
UO_0000065

>  <canonical_smiles>  (351) 
Clc1ccc2Nc3ccccc3C(=Nc2c1)N4CCN(CCCNC(=O)CCCCCCCCCCC(=O)NCCCN5CCN(CC5)C6=Nc7cc(Cl)ccc7Nc8ccccc68)CC4

>  <parent_molecule_chembl_id>  (351) 
CHEMBL2016629

>  <assay_type>  (351) 
B

>  <src_id>  (351) 
1

>  <ligand_efficiency>  (351) 
{u'le': u'0.12', u'bei': u'6.38', u'sei': u'4.97', u'lle': u'-3.09'}

>  <standard_flag>  (351) 
True

>  <molecule_chembl_id>  (351) 
CHEMBL2016629

>  <target_organism>  (351) 
Homo sapiens

>  <standard_units>  (351) 
nM

>  <record_id>  (351) 
1634054

>  <document_chembl_id>  (351) 
CHEMBL2016514

>  <bao_format>  (351) 
BAO_0000219

>  <data_validity_description>  (351) 
None

>  <activity_id>  (351) 
10858726

>  <standard_type>  (351) 
IC50

>  <target_chembl_id>  (351) 
CHEMBL217

>  <data_validity_comment>  (351) 
None

>  <published_value>  (351) 
5.96

>  <document_year>  (351) 
2012

>  <target_pref_name>  (351) 
Dopamine D2 receptor

>  <assay_chembl_id>  (351) 
CHEMBL2020816

>  <standard_relation>  (351) 
=

>  <assay_description>  (351) 
Inhibition of human dopamine D2L receptor expressed in intact CHO FlpIn cells assessed as inhibition of receptor-mediated mediated ERK1/2 phosphorylation by Alpha-Screen plate-based assay

>  <published_relation>  (351) 
=

>  <standard_value>  (351) 
1096.48

>  <qudt_units>  (351) 
http://www.openphacts.org/units/Nanomolar

>  <target_tax_id>  (351) 
9606

>  <bao_label>  (351) 
cell-based format

>  <published_units>  (351) 
None

>  <pchembl_value>  (351) 
5.96

>  <published_type>  (351) 
pIC50

>  <activity_comment>  (351) 
None

$$$$

     RDKit          

 64 71  0  0  0  0  0  0  0  0999 V2000
    0.0000    0.0000    0.0000 Cl  0  0  0  0  0  0  0  0  0  0  0  0
    0.0000    0.0000    0.0000 C   0  0  0  0  0  0  0  0  0  0  0  0
    0.0000    0.0000    0.0000 C   0  0  0  0  0  0  0  0  0  0  0  0
    0.0000    0.0000    0.0000 C   0  0  0  0  0  0  0  0  0  0  0  0
    0.0000    0.0000    0.0000 C   0  0  0  0  0  0  0  0  0  0  0  0
    0.0000    0.0000    0.0000 N   0  0  0  0  0  0  0  0  0  0  0  0
    0.0000    0.0000    0.0000 C   0  0  0  0  0  0  0  0  0  0  0  0
    0.0000    0.0000    0.0000 C   0  0  0  0  0  0  0  0  0  0  0  0
    0.0000    0.0000    0.0000 C   0  0  0  0  0  0  0  0  0  0  0  0
    0.0000    0.0000    0.0000 C   0  0  0  0  0  0  0  0  0  0  0  0
    0.0000    0.0000    0.0000 C   0  0  0  0  0  0  0  0  0  0  0  0
    0.0000    0.0000    0.0000 C   0  0  0  0  0  0  0  0  0  0  0  0
    0.0000    0.0000    0.0000 C   0  0  0  0  0  0  0  0  0  0  0  0
    0.0000    0.0000    0.0000 N   0  0  0  0  0  0  0  0  0  0  0  0
    0.0000    0.0000    0.0000 C   0  0  0  0  0  0  0  0  0  0  0  0
    0.0000    0.0000    0.0000 C   0  0  0  0  0  0  0  0  0  0  0  0
    0.0000    0.0000    0.0000 N   0  0  0  0  0  0  0  0  0  0  0  0
    0.0000    0.0000    0.0000 C   0  0  0  0  0  0  0  0  0  0  0  0
    0.0000    0.0000    0.0000 C   0  0  0  0  0  0  0  0  0  0  0  0
    0.0000    0.0000    0.0000 N   0  0  0  0  0  0  0  0  0  0  0  0
    0.0000    0.0000    0.0000 C   0  0  0  0  0  0  0  0  0  0  0  0
    0.0000    0.0000    0.0000 C   0  0  0  0  0  0  0  0  0  0  0  0
    0.0000    0.0000    0.0000 C   0  0  0  0  0  0  0  0  0  0  0  0
    0.0000    0.0000    0.0000 N   0  0  0  0  0  0  0  0  0  0  0  0
    0.0000    0.0000    0.0000 C   0  0  0  0  0  0  0  0  0  0  0  0
    0.0000    0.0000    0.0000 O   0  0  0  0  0  0  0  0  0  0  0  0
    0.0000    0.0000    0.0000 C   0  0  0  0  0  0  0  0  0  0  0  0
    0.0000    0.0000    0.0000 C   0  0  0  0  0  0  0  0  0  0  0  0
    0.0000    0.0000    0.0000 C   0  0  0  0  0  0  0  0  0  0  0  0
    0.0000    0.0000    0.0000 C   0  0  0  0  0  0  0  0  0  0  0  0
    0.0000    0.0000    0.0000 C   0  0  0  0  0  0  0  0  0  0  0  0
    0.0000    0.0000    0.0000 C   0  0  0  0  0  0  0  0  0  0  0  0
    0.0000    0.0000    0.0000 C   0  0  0  0  0  0  0  0  0  0  0  0
    0.0000    0.0000    0.0000 C   0  0  0  0  0  0  0  0  0  0  0  0
    0.0000    0.0000    0.0000 C   0  0  0  0  0  0  0  0  0  0  0  0
    0.0000    0.0000    0.0000 O   0  0  0  0  0  0  0  0  0  0  0  0
    0.0000    0.0000    0.0000 N   0  0  0  0  0  0  0  0  0  0  0  0
    0.0000    0.0000    0.0000 C   0  0  0  0  0  0  0  0  0  0  0  0
    0.0000    0.0000    0.0000 C   0  0  0  0  0  0  0  0  0  0  0  0
    0.0000    0.0000    0.0000 C   0  0  0  0  0  0  0  0  0  0  0  0
    0.0000    0.0000    0.0000 N   0  0  0  0  0  0  0  0  0  0  0  0
    0.0000    0.0000    0.0000 C   0  0  0  0  0  0  0  0  0  0  0  0
    0.0000    0.0000    0.0000 C   0  0  0  0  0  0  0  0  0  0  0  0
    0.0000    0.0000    0.0000 N   0  0  0  0  0  0  0  0  0  0  0  0
    0.0000    0.0000    0.0000 C   0  0  0  0  0  0  0  0  0  0  0  0
    0.0000    0.0000    0.0000 C   0  0  0  0  0  0  0  0  0  0  0  0
    0.0000    0.0000    0.0000 C   0  0  0  0  0  0  0  0  0  0  0  0
    0.0000    0.0000    0.0000 N   0  0  0  0  0  0  0  0  0  0  0  0
    0.0000    0.0000    0.0000 C   0  0  0  0  0  0  0  0  0  0  0  0
    0.0000    0.0000    0.0000 C   0  0  0  0  0  0  0  0  0  0  0  0
    0.0000    0.0000    0.0000 C   0  0  0  0  0  0  0  0  0  0  0  0
    0.0000    0.0000    0.0000 Cl  0  0  0  0  0  0  0  0  0  0  0  0
    0.0000    0.0000    0.0000 C   0  0  0  0  0  0  0  0  0  0  0  0
    0.0000    0.0000    0.0000 C   0  0  0  0  0  0  0  0  0  0  0  0
    0.0000    0.0000    0.0000 C   0  0  0  0  0  0  0  0  0  0  0  0
    0.0000    0.0000    0.0000 N   0  0  0  0  0  0  0  0  0  0  0  0
    0.0000    0.0000    0.0000 C   0  0  0  0  0  0  0  0  0  0  0  0
    0.0000    0.0000    0.0000 C   0  0  0  0  0  0  0  0  0  0  0  0
    0.0000    0.0000    0.0000 C   0  0  0  0  0  0  0  0  0  0  0  0
    0.0000    0.0000    0.0000 C   0  0  0  0  0  0  0  0  0  0  0  0
    0.0000    0.0000    0.0000 C   0  0  0  0  0  0  0  0  0  0  0  0
    0.0000    0.0000    0.0000 C   0  0  0  0  0  0  0  0  0  0  0  0
    0.0000    0.0000    0.0000 C   0  0  0  0  0  0  0  0  0  0  0  0
    0.0000    0.0000    0.0000 C   0  0  0  0  0  0  0  0  0  0  0  0
  1  2  1  0
  2  3  2  0
  3  4  1  0
  4  5  2  0
  5  6  1  0
  6  7  1  0
  7  8  2  0
  8  9  1  0
  9 10  2  0
 10 11  1  0
 11 12  2  0
 12 13  1  0
 13 14  2  0
 14 15  1  0
 15 16  2  0
 13 17  1  0
 17 18  1  0
 18 19  1  0
 19 20  1  0
 20 21  1  0
 21 22  1  0
 22 23  1  0
 23 24  1  0
 24 25  1  0
 25 26  2  0
 25 27  1  0
 27 28  1  0
 28 29  1  0
 29 30  1  0
 30 31  1  0
 31 32  1  0
 32 33  1  0
 33 34  1  0
 34 35  1  0
 35 36  2  0
 35 37  1  0
 37 38  1  0
 38 39  1  0
 39 40  1  0
 40 41  1  0
 41 42  1  0
 42 43  1  0
 43 44  1  0
 44 45  1  0
 45 46  1  0
 44 47  1  0
 47 48  2  0
 48 49  1  0
 49 50  2  0
 50 51  1  0
 51 52  1  0
 51 53  2  0
 53 54  1  0
 54 55  2  0
 55 56  1  0
 56 57  1  0
 57 58  2  0
 58 59  1  0
 59 60  2  0
 60 61  1  0
 61 62  2  0
 20 63  1  0
 63 64  1  0
 16  2  1  0
 15  5  1  0
 12  7  1  0
 64 17  1  0
 46 41  1  0
 62 47  1  0
 55 49  1  0
 62 57  1  0
M  END
>  <pIC50>  (352) 
7.355

>  <ChEMBL_ID>  (352) 
CHEMBL2016628

>  <document_journal>  (352) 
J. Med. Chem.

>  <bao_endpoint>  (352) 
BAO_0000190

>  <potential_duplicate>  (352) 
False

>  <uo_units>  (352) 
UO_0000065

>  <canonical_smiles>  (352) 
Clc1ccc2Nc3ccccc3C(=Nc2c1)N4CCN(CCCNC(=O)CCCCCCCCC(=O)NCCCN5CCN(CC5)C6=Nc7cc(Cl)ccc7Nc8ccccc68)CC4

>  <parent_molecule_chembl_id>  (352) 
CHEMBL2016628

>  <assay_type>  (352) 
B

>  <src_id>  (352) 
1

>  <ligand_efficiency>  (352) 
{u'le': u'0.16', u'bei': u'8.11', u'sei': u'6.13', u'lle': u'-0.79'}

>  <standard_flag>  (352) 
True

>  <molecule_chembl_id>  (352) 
CHEMBL2016628

>  <target_organism>  (352) 
Homo sapiens

>  <standard_units>  (352) 
nM

>  <record_id>  (352) 
1634053

>  <document_chembl_id>  (352) 
CHEMBL2016514

>  <bao_format>  (352) 
BAO_0000219

>  <data_validity_description>  (352) 
None

>  <activity_id>  (352) 
10858727

>  <standard_type>  (352) 
IC50

>  <target_chembl_id>  (352) 
CHEMBL217

>  <data_validity_comment>  (352) 
None

>  <published_value>  (352) 
7.35

>  <document_year>  (352) 
2012

>  <target_pref_name>  (352) 
Dopamine D2 receptor

>  <assay_chembl_id>  (352) 
CHEMBL2020816

>  <standard_relation>  (352) 
=

>  <assay_description>  (352) 
Inhibition of human dopamine D2L receptor expressed in intact CHO FlpIn cells assessed as inhibition of receptor-mediated mediated ERK1/2 phosphorylation by Alpha-Screen plate-based assay

>  <published_relation>  (352) 
=

>  <standard_value>  (352) 
44.67

>  <qudt_units>  (352) 
http://www.openphacts.org/units/Nanomolar

>  <target_tax_id>  (352) 
9606

>  <bao_label>  (352) 
cell-based format

>  <published_units>  (352) 
None

>  <pchembl_value>  (352) 
7.35

>  <published_type>  (352) 
pIC50

>  <activity_comment>  (352) 
None

$$$$

     RDKit          

 62 69  0  0  0  0  0  0  0  0999 V2000
    0.0000    0.0000    0.0000 Cl  0  0  0  0  0  0  0  0  0  0  0  0
    0.0000    0.0000    0.0000 C   0  0  0  0  0  0  0  0  0  0  0  0
    0.0000    0.0000    0.0000 C   0  0  0  0  0  0  0  0  0  0  0  0
    0.0000    0.0000    0.0000 C   0  0  0  0  0  0  0  0  0  0  0  0
    0.0000    0.0000    0.0000 C   0  0  0  0  0  0  0  0  0  0  0  0
    0.0000    0.0000    0.0000 N   0  0  0  0  0  0  0  0  0  0  0  0
    0.0000    0.0000    0.0000 C   0  0  0  0  0  0  0  0  0  0  0  0
    0.0000    0.0000    0.0000 C   0  0  0  0  0  0  0  0  0  0  0  0
    0.0000    0.0000    0.0000 C   0  0  0  0  0  0  0  0  0  0  0  0
    0.0000    0.0000    0.0000 C   0  0  0  0  0  0  0  0  0  0  0  0
    0.0000    0.0000    0.0000 C   0  0  0  0  0  0  0  0  0  0  0  0
    0.0000    0.0000    0.0000 C   0  0  0  0  0  0  0  0  0  0  0  0
    0.0000    0.0000    0.0000 C   0  0  0  0  0  0  0  0  0  0  0  0
    0.0000    0.0000    0.0000 N   0  0  0  0  0  0  0  0  0  0  0  0
    0.0000    0.0000    0.0000 C   0  0  0  0  0  0  0  0  0  0  0  0
    0.0000    0.0000    0.0000 C   0  0  0  0  0  0  0  0  0  0  0  0
    0.0000    0.0000    0.0000 N   0  0  0  0  0  0  0  0  0  0  0  0
    0.0000    0.0000    0.0000 C   0  0  0  0  0  0  0  0  0  0  0  0
    0.0000    0.0000    0.0000 C   0  0  0  0  0  0  0  0  0  0  0  0
    0.0000    0.0000    0.0000 N   0  0  0  0  0  0  0  0  0  0  0  0
    0.0000    0.0000    0.0000 C   0  0  0  0  0  0  0  0  0  0  0  0
    0.0000    0.0000    0.0000 C   0  0  0  0  0  0  0  0  0  0  0  0
    0.0000    0.0000    0.0000 C   0  0  0  0  0  0  0  0  0  0  0  0
    0.0000    0.0000    0.0000 N   0  0  0  0  0  0  0  0  0  0  0  0
    0.0000    0.0000    0.0000 C   0  0  0  0  0  0  0  0  0  0  0  0
    0.0000    0.0000    0.0000 O   0  0  0  0  0  0  0  0  0  0  0  0
    0.0000    0.0000    0.0000 C   0  0  0  0  0  0  0  0  0  0  0  0
    0.0000    0.0000    0.0000 C   0  0  0  0  0  0  0  0  0  0  0  0
    0.0000    0.0000    0.0000 C   0  0  0  0  0  0  0  0  0  0  0  0
    0.0000    0.0000    0.0000 C   0  0  0  0  0  0  0  0  0  0  0  0
    0.0000    0.0000    0.0000 C   0  0  0  0  0  0  0  0  0  0  0  0
    0.0000    0.0000    0.0000 C   0  0  0  0  0  0  0  0  0  0  0  0
    0.0000    0.0000    0.0000 C   0  0  0  0  0  0  0  0  0  0  0  0
    0.0000    0.0000    0.0000 O   0  0  0  0  0  0  0  0  0  0  0  0
    0.0000    0.0000    0.0000 N   0  0  0  0  0  0  0  0  0  0  0  0
    0.0000    0.0000    0.0000 C   0  0  0  0  0  0  0  0  0  0  0  0
    0.0000    0.0000    0.0000 C   0  0  0  0  0  0  0  0  0  0  0  0
    0.0000    0.0000    0.0000 C   0  0  0  0  0  0  0  0  0  0  0  0
    0.0000    0.0000    0.0000 N   0  0  0  0  0  0  0  0  0  0  0  0
    0.0000    0.0000    0.0000 C   0  0  0  0  0  0  0  0  0  0  0  0
    0.0000    0.0000    0.0000 C   0  0  0  0  0  0  0  0  0  0  0  0
    0.0000    0.0000    0.0000 N   0  0  0  0  0  0  0  0  0  0  0  0
    0.0000    0.0000    0.0000 C   0  0  0  0  0  0  0  0  0  0  0  0
    0.0000    0.0000    0.0000 C   0  0  0  0  0  0  0  0  0  0  0  0
    0.0000    0.0000    0.0000 C   0  0  0  0  0  0  0  0  0  0  0  0
    0.0000    0.0000    0.0000 N   0  0  0  0  0  0  0  0  0  0  0  0
    0.0000    0.0000    0.0000 C   0  0  0  0  0  0  0  0  0  0  0  0
    0.0000    0.0000    0.0000 C   0  0  0  0  0  0  0  0  0  0  0  0
    0.0000    0.0000    0.0000 C   0  0  0  0  0  0  0  0  0  0  0  0
    0.0000    0.0000    0.0000 Cl  0  0  0  0  0  0  0  0  0  0  0  0
    0.0000    0.0000    0.0000 C   0  0  0  0  0  0  0  0  0  0  0  0
    0.0000    0.0000    0.0000 C   0  0  0  0  0  0  0  0  0  0  0  0
    0.0000    0.0000    0.0000 C   0  0  0  0  0  0  0  0  0  0  0  0
    0.0000    0.0000    0.0000 N   0  0  0  0  0  0  0  0  0  0  0  0
    0.0000    0.0000    0.0000 C   0  0  0  0  0  0  0  0  0  0  0  0
    0.0000    0.0000    0.0000 C   0  0  0  0  0  0  0  0  0  0  0  0
    0.0000    0.0000    0.0000 C   0  0  0  0  0  0  0  0  0  0  0  0
    0.0000    0.0000    0.0000 C   0  0  0  0  0  0  0  0  0  0  0  0
    0.0000    0.0000    0.0000 C   0  0  0  0  0  0  0  0  0  0  0  0
    0.0000    0.0000    0.0000 C   0  0  0  0  0  0  0  0  0  0  0  0
    0.0000    0.0000    0.0000 C   0  0  0  0  0  0  0  0  0  0  0  0
    0.0000    0.0000    0.0000 C   0  0  0  0  0  0  0  0  0  0  0  0
  1  2  1  0
  2  3  2  0
  3  4  1  0
  4  5  2  0
  5  6  1  0
  6  7  1  0
  7  8  2  0
  8  9  1  0
  9 10  2  0
 10 11  1  0
 11 12  2  0
 12 13  1  0
 13 14  2  0
 14 15  1  0
 15 16  2  0
 13 17  1  0
 17 18  1  0
 18 19  1  0
 19 20  1  0
 20 21  1  0
 21 22  1  0
 22 23  1  0
 23 24  1  0
 24 25  1  0
 25 26  2  0
 25 27  1  0
 27 28  1  0
 28 29  1  0
 29 30  1  0
 30 31  1  0
 31 32  1  0
 32 33  1  0
 33 34  2  0
 33 35  1  0
 35 36  1  0
 36 37  1  0
 37 38  1  0
 38 39  1  0
 39 40  1  0
 40 41  1  0
 41 42  1  0
 42 43  1  0
 43 44  1  0
 42 45  1  0
 45 46  2  0
 46 47  1  0
 47 48  2  0
 48 49  1  0
 49 50  1  0
 49 51  2  0
 51 52  1  0
 52 53  2  0
 53 54  1  0
 54 55  1  0
 55 56  2  0
 56 57  1  0
 57 58  2  0
 58 59  1  0
 59 60  2  0
 20 61  1  0
 61 62  1  0
 16  2  1  0
 15  5  1  0
 12  7  1  0
 62 17  1  0
 44 39  1  0
 60 45  1  0
 53 47  1  0
 60 55  1  0
M  END
>  <pIC50>  (353) 
7.635

>  <ChEMBL_ID>  (353) 
CHEMBL2016627

>  <document_journal>  (353) 
J. Med. Chem.

>  <bao_endpoint>  (353) 
BAO_0000190

>  <potential_duplicate>  (353) 
False

>  <uo_units>  (353) 
UO_0000065

>  <canonical_smiles>  (353) 
Clc1ccc2Nc3ccccc3C(=Nc2c1)N4CCN(CCCNC(=O)CCCCCCC(=O)NCCCN5CCN(CC5)C6=Nc7cc(Cl)ccc7Nc8ccccc68)CC4

>  <parent_molecule_chembl_id>  (353) 
CHEMBL2016627

>  <assay_type>  (353) 
B

>  <src_id>  (353) 
1

>  <ligand_efficiency>  (353) 
{u'le': u'0.17', u'bei': u'8.69', u'sei': u'6.36', u'lle': u'0.4'}

>  <standard_flag>  (353) 
True

>  <molecule_chembl_id>  (353) 
CHEMBL2016627

>  <target_organism>  (353) 
Homo sapiens

>  <standard_units>  (353) 
nM

>  <record_id>  (353) 
1634052

>  <document_chembl_id>  (353) 
CHEMBL2016514

>  <bao_format>  (353) 
BAO_0000219

>  <data_validity_description>  (353) 
None

>  <activity_id>  (353) 
10858728

>  <standard_type>  (353) 
IC50

>  <target_chembl_id>  (353) 
CHEMBL217

>  <data_validity_comment>  (353) 
None

>  <published_value>  (353) 
7.63

>  <document_year>  (353) 
2012

>  <target_pref_name>  (353) 
Dopamine D2 receptor

>  <assay_chembl_id>  (353) 
CHEMBL2020816

>  <standard_relation>  (353) 
=

>  <assay_description>  (353) 
Inhibition of human dopamine D2L receptor expressed in intact CHO FlpIn cells assessed as inhibition of receptor-mediated mediated ERK1/2 phosphorylation by Alpha-Screen plate-based assay

>  <published_relation>  (353) 
=

>  <standard_value>  (353) 
23.44

>  <qudt_units>  (353) 
http://www.openphacts.org/units/Nanomolar

>  <target_tax_id>  (353) 
9606

>  <bao_label>  (353) 
cell-based format

>  <published_units>  (353) 
None

>  <pchembl_value>  (353) 
7.63

>  <published_type>  (353) 
pIC50

>  <activity_comment>  (353) 
None

$$$$

     RDKit          

 60 67  0  0  0  0  0  0  0  0999 V2000
    0.0000    0.0000    0.0000 Cl  0  0  0  0  0  0  0  0  0  0  0  0
    0.0000    0.0000    0.0000 C   0  0  0  0  0  0  0  0  0  0  0  0
    0.0000    0.0000    0.0000 C   0  0  0  0  0  0  0  0  0  0  0  0
    0.0000    0.0000    0.0000 C   0  0  0  0  0  0  0  0  0  0  0  0
    0.0000    0.0000    0.0000 C   0  0  0  0  0  0  0  0  0  0  0  0
    0.0000    0.0000    0.0000 N   0  0  0  0  0  0  0  0  0  0  0  0
    0.0000    0.0000    0.0000 C   0  0  0  0  0  0  0  0  0  0  0  0
    0.0000    0.0000    0.0000 C   0  0  0  0  0  0  0  0  0  0  0  0
    0.0000    0.0000    0.0000 C   0  0  0  0  0  0  0  0  0  0  0  0
    0.0000    0.0000    0.0000 C   0  0  0  0  0  0  0  0  0  0  0  0
    0.0000    0.0000    0.0000 C   0  0  0  0  0  0  0  0  0  0  0  0
    0.0000    0.0000    0.0000 C   0  0  0  0  0  0  0  0  0  0  0  0
    0.0000    0.0000    0.0000 C   0  0  0  0  0  0  0  0  0  0  0  0
    0.0000    0.0000    0.0000 N   0  0  0  0  0  0  0  0  0  0  0  0
    0.0000    0.0000    0.0000 C   0  0  0  0  0  0  0  0  0  0  0  0
    0.0000    0.0000    0.0000 C   0  0  0  0  0  0  0  0  0  0  0  0
    0.0000    0.0000    0.0000 N   0  0  0  0  0  0  0  0  0  0  0  0
    0.0000    0.0000    0.0000 C   0  0  0  0  0  0  0  0  0  0  0  0
    0.0000    0.0000    0.0000 C   0  0  0  0  0  0  0  0  0  0  0  0
    0.0000    0.0000    0.0000 N   0  0  0  0  0  0  0  0  0  0  0  0
    0.0000    0.0000    0.0000 C   0  0  0  0  0  0  0  0  0  0  0  0
    0.0000    0.0000    0.0000 C   0  0  0  0  0  0  0  0  0  0  0  0
    0.0000    0.0000    0.0000 C   0  0  0  0  0  0  0  0  0  0  0  0
    0.0000    0.0000    0.0000 N   0  0  0  0  0  0  0  0  0  0  0  0
    0.0000    0.0000    0.0000 C   0  0  0  0  0  0  0  0  0  0  0  0
    0.0000    0.0000    0.0000 O   0  0  0  0  0  0  0  0  0  0  0  0
    0.0000    0.0000    0.0000 C   0  0  0  0  0  0  0  0  0  0  0  0
    0.0000    0.0000    0.0000 C   0  0  0  0  0  0  0  0  0  0  0  0
    0.0000    0.0000    0.0000 C   0  0  0  0  0  0  0  0  0  0  0  0
    0.0000    0.0000    0.0000 C   0  0  0  0  0  0  0  0  0  0  0  0
    0.0000    0.0000    0.0000 C   0  0  0  0  0  0  0  0  0  0  0  0
    0.0000    0.0000    0.0000 O   0  0  0  0  0  0  0  0  0  0  0  0
    0.0000    0.0000    0.0000 N   0  0  0  0  0  0  0  0  0  0  0  0
    0.0000    0.0000    0.0000 C   0  0  0  0  0  0  0  0  0  0  0  0
    0.0000    0.0000    0.0000 C   0  0  0  0  0  0  0  0  0  0  0  0
    0.0000    0.0000    0.0000 C   0  0  0  0  0  0  0  0  0  0  0  0
    0.0000    0.0000    0.0000 N   0  0  0  0  0  0  0  0  0  0  0  0
    0.0000    0.0000    0.0000 C   0  0  0  0  0  0  0  0  0  0  0  0
    0.0000    0.0000    0.0000 C   0  0  0  0  0  0  0  0  0  0  0  0
    0.0000    0.0000    0.0000 N   0  0  0  0  0  0  0  0  0  0  0  0
    0.0000    0.0000    0.0000 C   0  0  0  0  0  0  0  0  0  0  0  0
    0.0000    0.0000    0.0000 C   0  0  0  0  0  0  0  0  0  0  0  0
    0.0000    0.0000    0.0000 C   0  0  0  0  0  0  0  0  0  0  0  0
    0.0000    0.0000    0.0000 N   0  0  0  0  0  0  0  0  0  0  0  0
    0.0000    0.0000    0.0000 C   0  0  0  0  0  0  0  0  0  0  0  0
    0.0000    0.0000    0.0000 C   0  0  0  0  0  0  0  0  0  0  0  0
    0.0000    0.0000    0.0000 C   0  0  0  0  0  0  0  0  0  0  0  0
    0.0000    0.0000    0.0000 Cl  0  0  0  0  0  0  0  0  0  0  0  0
    0.0000    0.0000    0.0000 C   0  0  0  0  0  0  0  0  0  0  0  0
    0.0000    0.0000    0.0000 C   0  0  0  0  0  0  0  0  0  0  0  0
    0.0000    0.0000    0.0000 C   0  0  0  0  0  0  0  0  0  0  0  0
    0.0000    0.0000    0.0000 N   0  0  0  0  0  0  0  0  0  0  0  0
    0.0000    0.0000    0.0000 C   0  0  0  0  0  0  0  0  0  0  0  0
    0.0000    0.0000    0.0000 C   0  0  0  0  0  0  0  0  0  0  0  0
    0.0000    0.0000    0.0000 C   0  0  0  0  0  0  0  0  0  0  0  0
    0.0000    0.0000    0.0000 C   0  0  0  0  0  0  0  0  0  0  0  0
    0.0000    0.0000    0.0000 C   0  0  0  0  0  0  0  0  0  0  0  0
    0.0000    0.0000    0.0000 C   0  0  0  0  0  0  0  0  0  0  0  0
    0.0000    0.0000    0.0000 C   0  0  0  0  0  0  0  0  0  0  0  0
    0.0000    0.0000    0.0000 C   0  0  0  0  0  0  0  0  0  0  0  0
  1  2  1  0
  2  3  2  0
  3  4  1  0
  4  5  2  0
  5  6  1  0
  6  7  1  0
  7  8  2  0
  8  9  1  0
  9 10  2  0
 10 11  1  0
 11 12  2  0
 12 13  1  0
 13 14  2  0
 14 15  1  0
 15 16  2  0
 13 17  1  0
 17 18  1  0
 18 19  1  0
 19 20  1  0
 20 21  1  0
 21 22  1  0
 22 23  1  0
 23 24  1  0
 24 25  1  0
 25 26  2  0
 25 27  1  0
 27 28  1  0
 28 29  1  0
 29 30  1  0
 30 31  1  0
 31 32  2  0
 31 33  1  0
 33 34  1  0
 34 35  1  0
 35 36  1  0
 36 37  1  0
 37 38  1  0
 38 39  1  0
 39 40  1  0
 40 41  1  0
 41 42  1  0
 40 43  1  0
 43 44  2  0
 44 45  1  0
 45 46  2  0
 46 47  1  0
 47 48  1  0
 47 49  2  0
 49 50  1  0
 50 51  2  0
 51 52  1  0
 52 53  1  0
 53 54  2  0
 54 55  1  0
 55 56  2  0
 56 57  1  0
 57 58  2  0
 20 59  1  0
 59 60  1  0
 16  2  1  0
 15  5  1  0
 12  7  1  0
 60 17  1  0
 42 37  1  0
 58 43  1  0
 51 45  1  0
 58 53  1  0
M  END
>  <pIC50>  (354) 
7.06

>  <ChEMBL_ID>  (354) 
CHEMBL2016626

>  <document_journal>  (354) 
J. Med. Chem.

>  <bao_endpoint>  (354) 
BAO_0000190

>  <potential_duplicate>  (354) 
False

>  <uo_units>  (354) 
UO_0000065

>  <canonical_smiles>  (354) 
Clc1ccc2Nc3ccccc3C(=Nc2c1)N4CCN(CCCNC(=O)CCCCC(=O)NCCCN5CCN(CC5)C6=Nc7cc(Cl)ccc7Nc8ccccc68)CC4

>  <parent_molecule_chembl_id>  (354) 
CHEMBL2016626

>  <assay_type>  (354) 
B

>  <src_id>  (354) 
1

>  <ligand_efficiency>  (354) 
{u'le': u'0.16', u'bei': u'8.31', u'sei': u'5.89', u'lle': u'0.74'}

>  <standard_flag>  (354) 
True

>  <molecule_chembl_id>  (354) 
CHEMBL2016626

>  <target_organism>  (354) 
Homo sapiens

>  <standard_units>  (354) 
nM

>  <record_id>  (354) 
1634051

>  <document_chembl_id>  (354) 
CHEMBL2016514

>  <bao_format>  (354) 
BAO_0000219

>  <data_validity_description>  (354) 
None

>  <activity_id>  (354) 
10858729

>  <standard_type>  (354) 
IC50

>  <target_chembl_id>  (354) 
CHEMBL217

>  <data_validity_comment>  (354) 
None

>  <published_value>  (354) 
7.06

>  <document_year>  (354) 
2012

>  <target_pref_name>  (354) 
Dopamine D2 receptor

>  <assay_chembl_id>  (354) 
CHEMBL2020816

>  <standard_relation>  (354) 
=

>  <assay_description>  (354) 
Inhibition of human dopamine D2L receptor expressed in intact CHO FlpIn cells assessed as inhibition of receptor-mediated mediated ERK1/2 phosphorylation by Alpha-Screen plate-based assay

>  <published_relation>  (354) 
=

>  <standard_value>  (354) 
87.1

>  <qudt_units>  (354) 
http://www.openphacts.org/units/Nanomolar

>  <target_tax_id>  (354) 
9606

>  <bao_label>  (354) 
cell-based format

>  <published_units>  (354) 
None

>  <pchembl_value>  (354) 
7.06

>  <published_type>  (354) 
pIC50

>  <activity_comment>  (354) 
None

$$$$

     RDKit          

 37 40  0  0  0  0  0  0  0  0999 V2000
    0.0000    0.0000    0.0000 C   0  0  0  0  0  0  0  0  0  0  0  0
    0.0000    0.0000    0.0000 C   0  0  0  0  0  0  0  0  0  0  0  0
    0.0000    0.0000    0.0000 C   0  0  0  0  0  0  0  0  0  0  0  0
    0.0000    0.0000    0.0000 C   0  0  0  0  0  0  0  0  0  0  0  0
    0.0000    0.0000    0.0000 C   0  0  0  0  0  0  0  0  0  0  0  0
    0.0000    0.0000    0.0000 C   0  0  0  0  0  0  0  0  0  0  0  0
    0.0000    0.0000    0.0000 C   0  0  0  0  0  0  0  0  0  0  0  0
    0.0000    0.0000    0.0000 C   0  0  0  0  0  0  0  0  0  0  0  0
    0.0000    0.0000    0.0000 C   0  0  0  0  0  0  0  0  0  0  0  0
    0.0000    0.0000    0.0000 C   0  0  0  0  0  0  0  0  0  0  0  0
    0.0000    0.0000    0.0000 O   0  0  0  0  0  0  0  0  0  0  0  0
    0.0000    0.0000    0.0000 N   0  0  0  0  0  0  0  0  0  0  0  0
    0.0000    0.0000    0.0000 C   0  0  0  0  0  0  0  0  0  0  0  0
    0.0000    0.0000    0.0000 C   0  0  0  0  0  0  0  0  0  0  0  0
    0.0000    0.0000    0.0000 C   0  0  0  0  0  0  0  0  0  0  0  0
    0.0000    0.0000    0.0000 N   0  0  0  0  0  0  0  0  0  0  0  0
    0.0000    0.0000    0.0000 C   0  0  0  0  0  0  0  0  0  0  0  0
    0.0000    0.0000    0.0000 C   0  0  0  0  0  0  0  0  0  0  0  0
    0.0000    0.0000    0.0000 N   0  0  0  0  0  0  0  0  0  0  0  0
    0.0000    0.0000    0.0000 C   0  0  0  0  0  0  0  0  0  0  0  0
    0.0000    0.0000    0.0000 C   0  0  0  0  0  0  0  0  0  0  0  0
    0.0000    0.0000    0.0000 C   0  0  0  0  0  0  0  0  0  0  0  0
    0.0000    0.0000    0.0000 N   0  0  0  0  0  0  0  0  0  0  0  0
    0.0000    0.0000    0.0000 C   0  0  0  0  0  0  0  0  0  0  0  0
    0.0000    0.0000    0.0000 C   0  0  0  0  0  0  0  0  0  0  0  0
    0.0000    0.0000    0.0000 C   0  0  0  0  0  0  0  0  0  0  0  0
    0.0000    0.0000    0.0000 Cl  0  0  0  0  0  0  0  0  0  0  0  0
    0.0000    0.0000    0.0000 C   0  0  0  0  0  0  0  0  0  0  0  0
    0.0000    0.0000    0.0000 C   0  0  0  0  0  0  0  0  0  0  0  0
    0.0000    0.0000    0.0000 C   0  0  0  0  0  0  0  0  0  0  0  0
    0.0000    0.0000    0.0000 N   0  0  0  0  0  0  0  0  0  0  0  0
    0.0000    0.0000    0.0000 C   0  0  0  0  0  0  0  0  0  0  0  0
    0.0000    0.0000    0.0000 C   0  0  0  0  0  0  0  0  0  0  0  0
    0.0000    0.0000    0.0000 C   0  0  0  0  0  0  0  0  0  0  0  0
    0.0000    0.0000    0.0000 C   0  0  0  0  0  0  0  0  0  0  0  0
    0.0000    0.0000    0.0000 C   0  0  0  0  0  0  0  0  0  0  0  0
    0.0000    0.0000    0.0000 C   0  0  0  0  0  0  0  0  0  0  0  0
  1  2  1  0
  2  3  1  0
  3  4  1  0
  4  5  1  0
  5  6  1  0
  6  7  1  0
  7  8  1  0
  8  9  1  0
  9 10  1  0
 10 11  2  0
 10 12  1  0
 12 13  1  0
 13 14  1  0
 14 15  1  0
 15 16  1  0
 16 17  1  0
 17 18  1  0
 18 19  1  0
 19 20  1  0
 20 21  1  0
 19 22  1  0
 22 23  2  0
 23 24  1  0
 24 25  2  0
 25 26  1  0
 26 27  1  0
 26 28  2  0
 28 29  1  0
 29 30  2  0
 30 31  1  0
 31 32  1  0
 32 33  2  0
 33 34  1  0
 34 35  2  0
 35 36  1  0
 36 37  2  0
 21 16  1  0
 37 22  1  0
 30 24  1  0
 37 32  1  0
M  END
>  <pIC50>  (355) 
5.84

>  <ChEMBL_ID>  (355) 
CHEMBL2016625

>  <document_journal>  (355) 
J. Med. Chem.

>  <bao_endpoint>  (355) 
BAO_0000190

>  <potential_duplicate>  (355) 
False

>  <uo_units>  (355) 
UO_0000065

>  <canonical_smiles>  (355) 
CCCCCCCCCC(=O)NCCCN1CCN(CC1)C2=Nc3cc(Cl)ccc3Nc4ccccc24

>  <parent_molecule_chembl_id>  (355) 
CHEMBL2016625

>  <assay_type>  (355) 
B

>  <src_id>  (355) 
1

>  <ligand_efficiency>  (355) 
{u'le': u'0.22', u'bei': u'11.14', u'sei': u'9.74', u'lle': u'-0.7'}

>  <standard_flag>  (355) 
True

>  <molecule_chembl_id>  (355) 
CHEMBL2016625

>  <target_organism>  (355) 
Homo sapiens

>  <standard_units>  (355) 
nM

>  <record_id>  (355) 
1634050

>  <document_chembl_id>  (355) 
CHEMBL2016514

>  <bao_format>  (355) 
BAO_0000219

>  <data_validity_description>  (355) 
None

>  <activity_id>  (355) 
10858730

>  <standard_type>  (355) 
IC50

>  <target_chembl_id>  (355) 
CHEMBL217

>  <data_validity_comment>  (355) 
None

>  <published_value>  (355) 
5.84

>  <document_year>  (355) 
2012

>  <target_pref_name>  (355) 
Dopamine D2 receptor

>  <assay_chembl_id>  (355) 
CHEMBL2020816

>  <standard_relation>  (355) 
=

>  <assay_description>  (355) 
Inhibition of human dopamine D2L receptor expressed in intact CHO FlpIn cells assessed as inhibition of receptor-mediated mediated ERK1/2 phosphorylation by Alpha-Screen plate-based assay

>  <published_relation>  (355) 
=

>  <standard_value>  (355) 
1445.44

>  <qudt_units>  (355) 
http://www.openphacts.org/units/Nanomolar

>  <target_tax_id>  (355) 
9606

>  <bao_label>  (355) 
cell-based format

>  <published_units>  (355) 
None

>  <pchembl_value>  (355) 
5.84

>  <published_type>  (355) 
pIC50

>  <activity_comment>  (355) 
None

$$$$

     RDKit          

 64 71  0  0  0  0  0  0  0  0999 V2000
    0.0000    0.0000    0.0000 C   0  0  0  0  0  0  0  0  0  0  0  0
    0.0000    0.0000    0.0000 N   0  0  0  0  0  0  0  0  0  0  0  0
    0.0000    0.0000    0.0000 C   0  0  0  0  0  0  0  0  0  0  0  0
    0.0000    0.0000    0.0000 C   0  0  0  0  0  0  0  0  0  0  0  0
    0.0000    0.0000    0.0000 N   0  0  0  0  0  0  0  0  0  0  0  0
    0.0000    0.0000    0.0000 C   0  0  0  0  0  0  0  0  0  0  0  0
    0.0000    0.0000    0.0000 C   0  0  0  0  0  0  0  0  0  0  0  0
    0.0000    0.0000    0.0000 C   0  0  0  0  0  0  0  0  0  0  0  0
    0.0000    0.0000    0.0000 N   0  0  0  0  0  0  0  0  0  0  0  0
    0.0000    0.0000    0.0000 C   0  0  0  0  0  0  0  0  0  0  0  0
    0.0000    0.0000    0.0000 C   0  0  0  0  0  0  0  0  0  0  0  0
    0.0000    0.0000    0.0000 C   0  0  0  0  0  0  0  0  0  0  0  0
    0.0000    0.0000    0.0000 Cl  0  0  0  0  0  0  0  0  0  0  0  0
    0.0000    0.0000    0.0000 C   0  0  0  0  0  0  0  0  0  0  0  0
    0.0000    0.0000    0.0000 C   0  0  0  0  0  0  0  0  0  0  0  0
    0.0000    0.0000    0.0000 C   0  0  0  0  0  0  0  0  0  0  0  0
    0.0000    0.0000    0.0000 N   0  0  0  0  0  0  0  0  0  0  0  0
    0.0000    0.0000    0.0000 N   0  0  0  0  0  0  0  0  0  0  0  0
    0.0000    0.0000    0.0000 C   0  0  0  0  0  0  0  0  0  0  0  0
    0.0000    0.0000    0.0000 O   0  0  0  0  0  0  0  0  0  0  0  0
    0.0000    0.0000    0.0000 C   0  0  0  0  0  0  0  0  0  0  0  0
    0.0000    0.0000    0.0000 C   0  0  0  0  0  0  0  0  0  0  0  0
    0.0000    0.0000    0.0000 C   0  0  0  0  0  0  0  0  0  0  0  0
    0.0000    0.0000    0.0000 O   0  0  0  0  0  0  0  0  0  0  0  0
    0.0000    0.0000    0.0000 O   0  0  0  0  0  0  0  0  0  0  0  0
    0.0000    0.0000    0.0000 C   0  0  0  0  0  0  0  0  0  0  0  0
    0.0000    0.0000    0.0000 C   0  0  0  0  0  0  0  0  0  0  0  0
    0.0000    0.0000    0.0000 O   0  0  0  0  0  0  0  0  0  0  0  0
    0.0000    0.0000    0.0000 C   0  0  0  0  0  0  0  0  0  0  0  0
    0.0000    0.0000    0.0000 O   0  0  0  0  0  0  0  0  0  0  0  0
    0.0000    0.0000    0.0000 C   0  0  0  0  0  0  0  0  0  0  0  0
    0.0000    0.0000    0.0000 C   0  0  0  0  0  0  0  0  0  0  0  0
    0.0000    0.0000    0.0000 C   0  0  0  0  0  0  0  0  0  0  0  0
    0.0000    0.0000    0.0000 O   0  0  0  0  0  0  0  0  0  0  0  0
    0.0000    0.0000    0.0000 N   0  0  0  0  0  0  0  0  0  0  0  0
    0.0000    0.0000    0.0000 N   0  0  0  0  0  0  0  0  0  0  0  0
    0.0000    0.0000    0.0000 C   0  0  0  0  0  0  0  0  0  0  0  0
    0.0000    0.0000    0.0000 C   0  0  0  0  0  0  0  0  0  0  0  0
    0.0000    0.0000    0.0000 C   0  0  0  0  0  0  0  0  0  0  0  0
    0.0000    0.0000    0.0000 C   0  0  0  0  0  0  0  0  0  0  0  0
    0.0000    0.0000    0.0000 Cl  0  0  0  0  0  0  0  0  0  0  0  0
    0.0000    0.0000    0.0000 C   0  0  0  0  0  0  0  0  0  0  0  0
    0.0000    0.0000    0.0000 C   0  0  0  0  0  0  0  0  0  0  0  0
    0.0000    0.0000    0.0000 N   0  0  0  0  0  0  0  0  0  0  0  0
    0.0000    0.0000    0.0000 C   0  0  0  0  0  0  0  0  0  0  0  0
    0.0000    0.0000    0.0000 N   0  0  0  0  0  0  0  0  0  0  0  0
    0.0000    0.0000    0.0000 C   0  0  0  0  0  0  0  0  0  0  0  0
    0.0000    0.0000    0.0000 C   0  0  0  0  0  0  0  0  0  0  0  0
    0.0000    0.0000    0.0000 N   0  0  0  0  0  0  0  0  0  0  0  0
    0.0000    0.0000    0.0000 C   0  0  0  0  0  0  0  0  0  0  0  0
    0.0000    0.0000    0.0000 C   0  0  0  0  0  0  0  0  0  0  0  0
    0.0000    0.0000    0.0000 C   0  0  0  0  0  0  0  0  0  0  0  0
    0.0000    0.0000    0.0000 C   0  0  0  0  0  0  0  0  0  0  0  0
    0.0000    0.0000    0.0000 C   0  0  0  0  0  0  0  0  0  0  0  0
    0.0000    0.0000    0.0000 C   0  0  0  0  0  0  0  0  0  0  0  0
    0.0000    0.0000    0.0000 C   0  0  0  0  0  0  0  0  0  0  0  0
    0.0000    0.0000    0.0000 C   0  0  0  0  0  0  0  0  0  0  0  0
    0.0000    0.0000    0.0000 C   0  0  0  0  0  0  0  0  0  0  0  0
    0.0000    0.0000    0.0000 C   0  0  0  0  0  0  0  0  0  0  0  0
    0.0000    0.0000    0.0000 C   0  0  0  0  0  0  0  0  0  0  0  0
    0.0000    0.0000    0.0000 C   0  0  0  0  0  0  0  0  0  0  0  0
    0.0000    0.0000    0.0000 C   0  0  0  0  0  0  0  0  0  0  0  0
    0.0000    0.0000    0.0000 C   0  0  0  0  0  0  0  0  0  0  0  0
    0.0000    0.0000    0.0000 C   0  0  0  0  0  0  0  0  0  0  0  0
  1  2  1  0
  2  3  1  0
  3  4  1  0
  4  5  1  0
  5  6  1  0
  6  7  1  0
  5  8  1  0
  8  9  2  0
  9 10  1  0
 10 11  2  0
 11 12  1  0
 12 13  1  0
 12 14  2  0
 14 15  1  0
 15 16  2  0
 16 17  1  0
 17 18  1  0
 18 19  1  0
 19 20  2  0
 19 21  1  0
 21 22  1  0
 22 23  1  0
 23 24  2  0
 23 25  1  0
 25 26  1  0
 26 27  1  0
 27 28  1  0
 28 29  1  0
 29 30  2  0
 29 31  1  0
 31 32  1  0
 32 33  1  0
 33 34  2  0
 33 35  1  0
 35 36  1  0
 36 37  1  0
 37 38  2  0
 38 39  1  0
 39 40  2  0
 40 41  1  0
 40 42  1  0
 42 43  2  0
 43 44  1  0
 44 45  2  0
 45 46  1  0
 46 47  1  0
 47 48  1  0
 48 49  1  0
 49 50  1  0
 49 51  1  0
 51 52  1  0
 45 53  1  0
 53 54  2  0
 54 55  1  0
 55 56  2  0
 56 57  1  0
 57 58  2  0
 17 59  1  0
 59 60  2  0
 60 61  1  0
 61 62  2  0
 62 63  1  0
 63 64  2  0
  7  2  1  0
 64  8  1  0
 16 10  1  0
 58 36  1  0
 43 37  1  0
 52 46  1  0
 58 53  1  0
 64 59  1  0
M  END
>  <pIC50>  (356) 
5.62

>  <ChEMBL_ID>  (356) 
CHEMBL2016624

>  <document_journal>  (356) 
J. Med. Chem.

>  <bao_endpoint>  (356) 
BAO_0000190

>  <potential_duplicate>  (356) 
False

>  <uo_units>  (356) 
UO_0000065

>  <canonical_smiles>  (356) 
CN1CCN(CC1)C2=Nc3cc(Cl)ccc3N(NC(=O)CCC(=O)OCCOC(=O)CCC(=O)NN4c5ccc(Cl)cc5N=C(N6CCN(C)CC6)c7ccccc47)c8ccccc28

>  <parent_molecule_chembl_id>  (356) 
CHEMBL2016624

>  <assay_type>  (356) 
B

>  <src_id>  (356) 
1

>  <ligand_efficiency>  (356) 
{u'le': u'0.12', u'bei': u'6.18', u'sei': u'3.63', u'lle': u'0.06'}

>  <standard_flag>  (356) 
True

>  <molecule_chembl_id>  (356) 
CHEMBL2016624

>  <target_organism>  (356) 
Homo sapiens

>  <standard_units>  (356) 
nM

>  <record_id>  (356) 
1634049

>  <document_chembl_id>  (356) 
CHEMBL2016514

>  <bao_format>  (356) 
BAO_0000219

>  <data_validity_description>  (356) 
None

>  <activity_id>  (356) 
10858731

>  <standard_type>  (356) 
IC50

>  <target_chembl_id>  (356) 
CHEMBL217

>  <data_validity_comment>  (356) 
None

>  <published_value>  (356) 
5.62

>  <document_year>  (356) 
2012

>  <target_pref_name>  (356) 
Dopamine D2 receptor

>  <assay_chembl_id>  (356) 
CHEMBL2020816

>  <standard_relation>  (356) 
=

>  <assay_description>  (356) 
Inhibition of human dopamine D2L receptor expressed in intact CHO FlpIn cells assessed as inhibition of receptor-mediated mediated ERK1/2 phosphorylation by Alpha-Screen plate-based assay

>  <published_relation>  (356) 
=

>  <standard_value>  (356) 
2398.83

>  <qudt_units>  (356) 
http://www.openphacts.org/units/Nanomolar

>  <target_tax_id>  (356) 
9606

>  <bao_label>  (356) 
cell-based format

>  <published_units>  (356) 
None

>  <pchembl_value>  (356) 
5.62

>  <published_type>  (356) 
pIC50

>  <activity_comment>  (356) 
None

$$$$

     RDKit          

 81 90  0  0  0  0  0  0  0  0999 V2000
    0.0000    0.0000    0.0000 C   0  0  0  0  0  0  0  0  0  0  0  0
    0.0000    0.0000    0.0000 N   0  0  0  0  0  0  0  0  0  0  0  0
    0.0000    0.0000    0.0000 C   0  0  0  0  0  0  0  0  0  0  0  0
    0.0000    0.0000    0.0000 C   0  0  0  0  0  0  0  0  0  0  0  0
    0.0000    0.0000    0.0000 N   0  0  0  0  0  0  0  0  0  0  0  0
    0.0000    0.0000    0.0000 C   0  0  0  0  0  0  0  0  0  0  0  0
    0.0000    0.0000    0.0000 C   0  0  0  0  0  0  0  0  0  0  0  0
    0.0000    0.0000    0.0000 C   0  0  0  0  0  0  0  0  0  0  0  0
    0.0000    0.0000    0.0000 N   0  0  0  0  0  0  0  0  0  0  0  0
    0.0000    0.0000    0.0000 C   0  0  0  0  0  0  0  0  0  0  0  0
    0.0000    0.0000    0.0000 C   0  0  0  0  0  0  0  0  0  0  0  0
    0.0000    0.0000    0.0000 C   0  0  0  0  0  0  0  0  0  0  0  0
    0.0000    0.0000    0.0000 Cl  0  0  0  0  0  0  0  0  0  0  0  0
    0.0000    0.0000    0.0000 C   0  0  0  0  0  0  0  0  0  0  0  0
    0.0000    0.0000    0.0000 C   0  0  0  0  0  0  0  0  0  0  0  0
    0.0000    0.0000    0.0000 C   0  0  0  0  0  0  0  0  0  0  0  0
    0.0000    0.0000    0.0000 N   0  0  0  0  0  0  0  0  0  0  0  0
    0.0000    0.0000    0.0000 N   0  0  0  0  0  0  0  0  0  0  0  0
    0.0000    0.0000    0.0000 C   0  0  0  0  0  0  0  0  0  0  0  0
    0.0000    0.0000    0.0000 O   0  0  0  0  0  0  0  0  0  0  0  0
    0.0000    0.0000    0.0000 C   0  0  0  0  0  0  0  0  0  0  0  0
    0.0000    0.0000    0.0000 C   0  0  0  0  0  0  0  0  0  0  0  0
    0.0000    0.0000    0.0000 C   0  0  0  0  0  0  0  0  0  0  0  0
    0.0000    0.0000    0.0000 C   0  0  0  0  0  0  0  0  0  0  0  0
    0.0000    0.0000    0.0000 O   0  0  0  0  0  0  0  0  0  0  0  0
    0.0000    0.0000    0.0000 N   0  0  0  0  0  0  0  0  0  0  0  0
    0.0000    0.0000    0.0000 C   0  0  0  0  0  0  0  0  0  0  0  0
    0.0000    0.0000    0.0000 C   0  0  0  0  0  0  0  0  0  0  0  0
    0.0000    0.0000    0.0000 N   0  0  0  0  0  0  0  0  0  0  0  0
    0.0000    0.0000    0.0000 C   0  0  0  0  0  0  0  0  0  0  0  0
    0.0000    0.0000    0.0000 C   0  0  0  0  0  0  0  0  0  0  0  0
    0.0000    0.0000    0.0000 C   0  0  0  0  0  0  0  0  0  0  0  0
    0.0000    0.0000    0.0000 O   0  0  0  0  0  0  0  0  0  0  0  0
    0.0000    0.0000    0.0000 C   0  0  0  0  0  0  0  0  0  0  0  0
    0.0000    0.0000    0.0000 C   0  0  0  0  0  0  0  0  0  0  0  0
    0.0000    0.0000    0.0000 C   0  0  0  0  0  0  0  0  0  0  0  0
    0.0000    0.0000    0.0000 C   0  0  0  0  0  0  0  0  0  0  0  0
    0.0000    0.0000    0.0000 O   0  0  0  0  0  0  0  0  0  0  0  0
    0.0000    0.0000    0.0000 N   0  0  0  0  0  0  0  0  0  0  0  0
    0.0000    0.0000    0.0000 C   0  0  0  0  0  0  0  0  0  0  0  0
    0.0000    0.0000    0.0000 C   0  0  0  0  0  0  0  0  0  0  0  0
    0.0000    0.0000    0.0000 N   0  0  0  0  0  0  0  0  0  0  0  0
    0.0000    0.0000    0.0000 C   0  0  0  0  0  0  0  0  0  0  0  0
    0.0000    0.0000    0.0000 C   0  0  0  0  0  0  0  0  0  0  0  0
    0.0000    0.0000    0.0000 C   0  0  0  0  0  0  0  0  0  0  0  0
    0.0000    0.0000    0.0000 O   0  0  0  0  0  0  0  0  0  0  0  0
    0.0000    0.0000    0.0000 C   0  0  0  0  0  0  0  0  0  0  0  0
    0.0000    0.0000    0.0000 C   0  0  0  0  0  0  0  0  0  0  0  0
    0.0000    0.0000    0.0000 C   0  0  0  0  0  0  0  0  0  0  0  0
    0.0000    0.0000    0.0000 C   0  0  0  0  0  0  0  0  0  0  0  0
    0.0000    0.0000    0.0000 O   0  0  0  0  0  0  0  0  0  0  0  0
    0.0000    0.0000    0.0000 N   0  0  0  0  0  0  0  0  0  0  0  0
    0.0000    0.0000    0.0000 N   0  0  0  0  0  0  0  0  0  0  0  0
    0.0000    0.0000    0.0000 C   0  0  0  0  0  0  0  0  0  0  0  0
    0.0000    0.0000    0.0000 C   0  0  0  0  0  0  0  0  0  0  0  0
    0.0000    0.0000    0.0000 C   0  0  0  0  0  0  0  0  0  0  0  0
    0.0000    0.0000    0.0000 C   0  0  0  0  0  0  0  0  0  0  0  0
    0.0000    0.0000    0.0000 Cl  0  0  0  0  0  0  0  0  0  0  0  0
    0.0000    0.0000    0.0000 C   0  0  0  0  0  0  0  0  0  0  0  0
    0.0000    0.0000    0.0000 C   0  0  0  0  0  0  0  0  0  0  0  0
    0.0000    0.0000    0.0000 N   0  0  0  0  0  0  0  0  0  0  0  0
    0.0000    0.0000    0.0000 C   0  0  0  0  0  0  0  0  0  0  0  0
    0.0000    0.0000    0.0000 N   0  0  0  0  0  0  0  0  0  0  0  0
    0.0000    0.0000    0.0000 C   0  0  0  0  0  0  0  0  0  0  0  0
    0.0000    0.0000    0.0000 C   0  0  0  0  0  0  0  0  0  0  0  0
    0.0000    0.0000    0.0000 N   0  0  0  0  0  0  0  0  0  0  0  0
    0.0000    0.0000    0.0000 C   0  0  0  0  0  0  0  0  0  0  0  0
    0.0000    0.0000    0.0000 C   0  0  0  0  0  0  0  0  0  0  0  0
    0.0000    0.0000    0.0000 C   0  0  0  0  0  0  0  0  0  0  0  0
    0.0000    0.0000    0.0000 C   0  0  0  0  0  0  0  0  0  0  0  0
    0.0000    0.0000    0.0000 C   0  0  0  0  0  0  0  0  0  0  0  0
    0.0000    0.0000    0.0000 C   0  0  0  0  0  0  0  0  0  0  0  0
    0.0000    0.0000    0.0000 C   0  0  0  0  0  0  0  0  0  0  0  0
    0.0000    0.0000    0.0000 C   0  0  0  0  0  0  0  0  0  0  0  0
    0.0000    0.0000    0.0000 C   0  0  0  0  0  0  0  0  0  0  0  0
    0.0000    0.0000    0.0000 C   0  0  0  0  0  0  0  0  0  0  0  0
    0.0000    0.0000    0.0000 C   0  0  0  0  0  0  0  0  0  0  0  0
    0.0000    0.0000    0.0000 C   0  0  0  0  0  0  0  0  0  0  0  0
    0.0000    0.0000    0.0000 C   0  0  0  0  0  0  0  0  0  0  0  0
    0.0000    0.0000    0.0000 C   0  0  0  0  0  0  0  0  0  0  0  0
    0.0000    0.0000    0.0000 C   0  0  0  0  0  0  0  0  0  0  0  0
  1  2  1  0
  2  3  1  0
  3  4  1  0
  4  5  1  0
  5  6  1  0
  6  7  1  0
  5  8  1  0
  8  9  2  0
  9 10  1  0
 10 11  2  0
 11 12  1  0
 12 13  1  0
 12 14  2  0
 14 15  1  0
 15 16  2  0
 16 17  1  0
 17 18  1  0
 18 19  1  0
 19 20  2  0
 19 21  1  0
 21 22  1  0
 22 23  1  0
 23 24  1  0
 24 25  2  0
 24 26  1  0
 26 27  1  0
 27 28  1  0
 28 29  1  0
 29 30  1  0
 30 31  1  0
 29 32  1  0
 32 33  2  0
 32 34  1  0
 34 35  1  0
 35 36  1  0
 36 37  1  0
 37 38  2  0
 37 39  1  0
 39 40  1  0
 40 41  1  0
 41 42  1  0
 42 43  1  0
 43 44  1  0
 42 45  1  0
 45 46  2  0
 45 47  1  0
 47 48  1  0
 48 49  1  0
 49 50  1  0
 50 51  2  0
 50 52  1  0
 52 53  1  0
 53 54  1  0
 54 55  2  0
 55 56  1  0
 56 57  2  0
 57 58  1  0
 57 59  1  0
 59 60  2  0
 60 61  1  0
 61 62  2  0
 62 63  1  0
 63 64  1  0
 64 65  1  0
 65 66  1  0
 66 67  1  0
 66 68  1  0
 68 69  1  0
 62 70  1  0
 70 71  2  0
 71 72  1  0
 72 73  2  0
 73 74  1  0
 74 75  2  0
 17 76  1  0
 76 77  2  0
 77 78  1  0
 78 79  2  0
 79 80  1  0
 80 81  2  0
  7  2  1  0
 81  8  1  0
 16 10  1  0
 31 26  1  0
 44 39  1  0
 75 53  1  0
 60 54  1  0
 69 63  1  0
 75 70  1  0
 81 76  1  0
M  END
>  <pIC50>  (357) 
5.58

>  <ChEMBL_ID>  (357) 
CHEMBL2016623

>  <document_journal>  (357) 
J. Med. Chem.

>  <bao_endpoint>  (357) 
BAO_0000190

>  <potential_duplicate>  (357) 
False

>  <uo_units>  (357) 
UO_0000065

>  <canonical_smiles>  (357) 
CN1CCN(CC1)C2=Nc3cc(Cl)ccc3N(NC(=O)CCCC(=O)N4CCN(CC4)C(=O)CCCC(=O)N5CCN(CC5)C(=O)CCCC(=O)NN6c7ccc(Cl)cc7N=C(N8CCN(C)CC8)c9ccccc69)c%10ccccc2%10

>  <parent_molecule_chembl_id>  (357) 
CHEMBL2016623

>  <assay_type>  (357) 
B

>  <src_id>  (357) 
1

>  <ligand_efficiency>  (357) 
{u'le': None, u'bei': u'4.88', u'sei': None, u'lle': None}

>  <standard_flag>  (357) 
True

>  <molecule_chembl_id>  (357) 
CHEMBL2016623

>  <target_organism>  (357) 
Homo sapiens

>  <standard_units>  (357) 
nM

>  <record_id>  (357) 
1634048

>  <document_chembl_id>  (357) 
CHEMBL2016514

>  <bao_format>  (357) 
BAO_0000219

>  <data_validity_description>  (357) 
None

>  <activity_id>  (357) 
10858732

>  <standard_type>  (357) 
IC50

>  <target_chembl_id>  (357) 
CHEMBL217

>  <data_validity_comment>  (357) 
None

>  <published_value>  (357) 
5.58

>  <document_year>  (357) 
2012

>  <target_pref_name>  (357) 
Dopamine D2 receptor

>  <assay_chembl_id>  (357) 
CHEMBL2020816

>  <standard_relation>  (357) 
=

>  <assay_description>  (357) 
Inhibition of human dopamine D2L receptor expressed in intact CHO FlpIn cells assessed as inhibition of receptor-mediated mediated ERK1/2 phosphorylation by Alpha-Screen plate-based assay

>  <published_relation>  (357) 
=

>  <standard_value>  (357) 
2630.27

>  <qudt_units>  (357) 
http://www.openphacts.org/units/Nanomolar

>  <target_tax_id>  (357) 
9606

>  <bao_label>  (357) 
cell-based format

>  <published_units>  (357) 
None

>  <pchembl_value>  (357) 
5.58

>  <published_type>  (357) 
pIC50

>  <activity_comment>  (357) 
None

$$$$

     RDKit          

 66 74  0  0  0  0  0  0  0  0999 V2000
    0.0000    0.0000    0.0000 C   0  0  0  0  0  0  0  0  0  0  0  0
    0.0000    0.0000    0.0000 N   0  0  0  0  0  0  0  0  0  0  0  0
    0.0000    0.0000    0.0000 C   0  0  0  0  0  0  0  0  0  0  0  0
    0.0000    0.0000    0.0000 C   0  0  0  0  0  0  0  0  0  0  0  0
    0.0000    0.0000    0.0000 N   0  0  0  0  0  0  0  0  0  0  0  0
    0.0000    0.0000    0.0000 C   0  0  0  0  0  0  0  0  0  0  0  0
    0.0000    0.0000    0.0000 C   0  0  0  0  0  0  0  0  0  0  0  0
    0.0000    0.0000    0.0000 C   0  0  0  0  0  0  0  0  0  0  0  0
    0.0000    0.0000    0.0000 N   0  0  0  0  0  0  0  0  0  0  0  0
    0.0000    0.0000    0.0000 C   0  0  0  0  0  0  0  0  0  0  0  0
    0.0000    0.0000    0.0000 C   0  0  0  0  0  0  0  0  0  0  0  0
    0.0000    0.0000    0.0000 C   0  0  0  0  0  0  0  0  0  0  0  0
    0.0000    0.0000    0.0000 Cl  0  0  0  0  0  0  0  0  0  0  0  0
    0.0000    0.0000    0.0000 C   0  0  0  0  0  0  0  0  0  0  0  0
    0.0000    0.0000    0.0000 C   0  0  0  0  0  0  0  0  0  0  0  0
    0.0000    0.0000    0.0000 C   0  0  0  0  0  0  0  0  0  0  0  0
    0.0000    0.0000    0.0000 N   0  0  0  0  0  0  0  0  0  0  0  0
    0.0000    0.0000    0.0000 N   0  0  0  0  0  0  0  0  0  0  0  0
    0.0000    0.0000    0.0000 C   0  0  0  0  0  0  0  0  0  0  0  0
    0.0000    0.0000    0.0000 O   0  0  0  0  0  0  0  0  0  0  0  0
    0.0000    0.0000    0.0000 C   0  0  0  0  0  0  0  0  0  0  0  0
    0.0000    0.0000    0.0000 C   0  0  0  0  0  0  0  0  0  0  0  0
    0.0000    0.0000    0.0000 C   0  0  0  0  0  0  0  0  0  0  0  0
    0.0000    0.0000    0.0000 O   0  0  0  0  0  0  0  0  0  0  0  0
    0.0000    0.0000    0.0000 N   0  0  0  0  0  0  0  0  0  0  0  0
    0.0000    0.0000    0.0000 C   0  0  0  0  0  0  0  0  0  0  0  0
    0.0000    0.0000    0.0000 C   0  0  0  0  0  0  0  0  0  0  0  0
    0.0000    0.0000    0.0000 N   0  0  0  0  0  0  0  0  0  0  0  0
    0.0000    0.0000    0.0000 C   0  0  0  0  0  0  0  0  0  0  0  0
    0.0000    0.0000    0.0000 C   0  0  0  0  0  0  0  0  0  0  0  0
    0.0000    0.0000    0.0000 C   0  0  0  0  0  0  0  0  0  0  0  0
    0.0000    0.0000    0.0000 O   0  0  0  0  0  0  0  0  0  0  0  0
    0.0000    0.0000    0.0000 C   0  0  0  0  0  0  0  0  0  0  0  0
    0.0000    0.0000    0.0000 C   0  0  0  0  0  0  0  0  0  0  0  0
    0.0000    0.0000    0.0000 C   0  0  0  0  0  0  0  0  0  0  0  0
    0.0000    0.0000    0.0000 O   0  0  0  0  0  0  0  0  0  0  0  0
    0.0000    0.0000    0.0000 N   0  0  0  0  0  0  0  0  0  0  0  0
    0.0000    0.0000    0.0000 N   0  0  0  0  0  0  0  0  0  0  0  0
    0.0000    0.0000    0.0000 C   0  0  0  0  0  0  0  0  0  0  0  0
    0.0000    0.0000    0.0000 C   0  0  0  0  0  0  0  0  0  0  0  0
    0.0000    0.0000    0.0000 C   0  0  0  0  0  0  0  0  0  0  0  0
    0.0000    0.0000    0.0000 C   0  0  0  0  0  0  0  0  0  0  0  0
    0.0000    0.0000    0.0000 Cl  0  0  0  0  0  0  0  0  0  0  0  0
    0.0000    0.0000    0.0000 C   0  0  0  0  0  0  0  0  0  0  0  0
    0.0000    0.0000    0.0000 C   0  0  0  0  0  0  0  0  0  0  0  0
    0.0000    0.0000    0.0000 N   0  0  0  0  0  0  0  0  0  0  0  0
    0.0000    0.0000    0.0000 C   0  0  0  0  0  0  0  0  0  0  0  0
    0.0000    0.0000    0.0000 N   0  0  0  0  0  0  0  0  0  0  0  0
    0.0000    0.0000    0.0000 C   0  0  0  0  0  0  0  0  0  0  0  0
    0.0000    0.0000    0.0000 C   0  0  0  0  0  0  0  0  0  0  0  0
    0.0000    0.0000    0.0000 N   0  0  0  0  0  0  0  0  0  0  0  0
    0.0000    0.0000    0.0000 C   0  0  0  0  0  0  0  0  0  0  0  0
    0.0000    0.0000    0.0000 C   0  0  0  0  0  0  0  0  0  0  0  0
    0.0000    0.0000    0.0000 C   0  0  0  0  0  0  0  0  0  0  0  0
    0.0000    0.0000    0.0000 C   0  0  0  0  0  0  0  0  0  0  0  0
    0.0000    0.0000    0.0000 C   0  0  0  0  0  0  0  0  0  0  0  0
    0.0000    0.0000    0.0000 C   0  0  0  0  0  0  0  0  0  0  0  0
    0.0000    0.0000    0.0000 C   0  0  0  0  0  0  0  0  0  0  0  0
    0.0000    0.0000    0.0000 C   0  0  0  0  0  0  0  0  0  0  0  0
    0.0000    0.0000    0.0000 C   0  0  0  0  0  0  0  0  0  0  0  0
    0.0000    0.0000    0.0000 C   0  0  0  0  0  0  0  0  0  0  0  0
    0.0000    0.0000    0.0000 C   0  0  0  0  0  0  0  0  0  0  0  0
    0.0000    0.0000    0.0000 C   0  0  0  0  0  0  0  0  0  0  0  0
    0.0000    0.0000    0.0000 C   0  0  0  0  0  0  0  0  0  0  0  0
    0.0000    0.0000    0.0000 C   0  0  0  0  0  0  0  0  0  0  0  0
    0.0000    0.0000    0.0000 C   0  0  0  0  0  0  0  0  0  0  0  0
  1  2  1  0
  2  3  1  0
  3  4  1  0
  4  5  1  0
  5  6  1  0
  6  7  1  0
  5  8  1  0
  8  9  2  0
  9 10  1  0
 10 11  2  0
 11 12  1  0
 12 13  1  0
 12 14  2  0
 14 15  1  0
 15 16  2  0
 16 17  1  0
 17 18  1  0
 18 19  1  0
 19 20  2  0
 19 21  1  0
 21 22  1  0
 22 23  1  0
 23 24  2  0
 23 25  1  0
 25 26  1  0
 26 27  1  0
 27 28  1  0
 28 29  1  0
 29 30  1  0
 28 31  1  0
 31 32  2  0
 31 33  1  0
 33 34  1  0
 34 35  1  0
 35 36  2  0
 35 37  1  0
 37 38  1  0
 38 39  1  0
 39 40  2  0
 40 41  1  0
 41 42  2  0
 42 43  1  0
 42 44  1  0
 44 45  2  0
 45 46  1  0
 46 47  2  0
 47 48  1  0
 48 49  1  0
 49 50  1  0
 50 51  1  0
 51 52  1  0
 51 53  1  0
 53 54  1  0
 47 55  1  0
 55 56  2  0
 56 57  1  0
 57 58  2  0
 58 59  1  0
 59 60  2  0
 17 61  1  0
 61 62  2  0
 62 63  1  0
 63 64  2  0
 64 65  1  0
 65 66  2  0
  7  2  1  0
 66  8  1  0
 16 10  1  0
 30 25  1  0
 60 38  1  0
 45 39  1  0
 54 48  1  0
 60 55  1  0
 66 61  1  0
M  END
>  <pIC50>  (358) 
5.79

>  <ChEMBL_ID>  (358) 
CHEMBL2016622

>  <document_journal>  (358) 
J. Med. Chem.

>  <bao_endpoint>  (358) 
BAO_0000190

>  <potential_duplicate>  (358) 
False

>  <uo_units>  (358) 
UO_0000065

>  <canonical_smiles>  (358) 
CN1CCN(CC1)C2=Nc3cc(Cl)ccc3N(NC(=O)CCC(=O)N4CCN(CC4)C(=O)CCC(=O)NN5c6ccc(Cl)cc6N=C(N7CCN(C)CC7)c8ccccc58)c9ccccc29

>  <parent_molecule_chembl_id>  (358) 
CHEMBL2016622

>  <assay_type>  (358) 
B

>  <src_id>  (358) 
1

>  <ligand_efficiency>  (358) 
{u'le': u'0.12', u'bei': u'6.2', u'sei': u'4.05', u'lle': u'1.3'}

>  <standard_flag>  (358) 
True

>  <molecule_chembl_id>  (358) 
CHEMBL2016622

>  <target_organism>  (358) 
Homo sapiens

>  <standard_units>  (358) 
nM

>  <record_id>  (358) 
1634047

>  <document_chembl_id>  (358) 
CHEMBL2016514

>  <bao_format>  (358) 
BAO_0000219

>  <data_validity_description>  (358) 
None

>  <activity_id>  (358) 
10858733

>  <standard_type>  (358) 
IC50

>  <target_chembl_id>  (358) 
CHEMBL217

>  <data_validity_comment>  (358) 
None

>  <published_value>  (358) 
5.79

>  <document_year>  (358) 
2012

>  <target_pref_name>  (358) 
Dopamine D2 receptor

>  <assay_chembl_id>  (358) 
CHEMBL2020816

>  <standard_relation>  (358) 
=

>  <assay_description>  (358) 
Inhibition of human dopamine D2L receptor expressed in intact CHO FlpIn cells assessed as inhibition of receptor-mediated mediated ERK1/2 phosphorylation by Alpha-Screen plate-based assay

>  <published_relation>  (358) 
=

>  <standard_value>  (358) 
1621.81

>  <qudt_units>  (358) 
http://www.openphacts.org/units/Nanomolar

>  <target_tax_id>  (358) 
9606

>  <bao_label>  (358) 
cell-based format

>  <published_units>  (358) 
None

>  <pchembl_value>  (358) 
5.79

>  <published_type>  (358) 
pIC50

>  <activity_comment>  (358) 
None

$$$$

     RDKit          

 29 32  0  0  0  0  0  0  0  0999 V2000
    0.0000    0.0000    0.0000 F   0  0  0  0  0  0  0  0  0  0  0  0
    0.0000    0.0000    0.0000 C   0  0  0  0  0  0  0  0  0  0  0  0
    0.0000    0.0000    0.0000 C   0  0  0  0  0  0  0  0  0  0  0  0
    0.0000    0.0000    0.0000 C   0  0  0  0  0  0  0  0  0  0  0  0
    0.0000    0.0000    0.0000 C   0  0  0  0  0  0  0  0  0  0  0  0
    0.0000    0.0000    0.0000 C   0  0  0  0  0  0  0  0  0  0  0  0
    0.0000    0.0000    0.0000 C   0  0  0  0  0  0  0  0  0  0  0  0
    0.0000    0.0000    0.0000 C   0  0  0  0  0  0  0  0  0  0  0  0
    0.0000    0.0000    0.0000 O   0  0  0  0  0  0  0  0  0  0  0  0
    0.0000    0.0000    0.0000 C   0  0  0  0  0  0  0  0  0  0  0  0
    0.0000    0.0000    0.0000 C   0  0  0  0  0  0  0  0  0  0  0  0
    0.0000    0.0000    0.0000 C   0  0  0  0  0  0  0  0  0  0  0  0
    0.0000    0.0000    0.0000 N   0  0  0  0  0  0  0  0  0  0  0  0
    0.0000    0.0000    0.0000 C   0  0  0  0  0  0  0  0  0  0  0  0
    0.0000    0.0000    0.0000 C   0  0  0  0  0  0  0  0  0  0  0  0
    0.0000    0.0000    0.0000 C   0  0  0  0  0  0  0  0  0  0  0  0
    0.0000    0.0000    0.0000 C   0  0  0  0  0  0  0  0  0  0  0  0
    0.0000    0.0000    0.0000 C   0  0  0  0  0  0  0  0  0  0  0  0
    0.0000    0.0000    0.0000 N   0  0  0  0  0  0  0  0  0  0  0  0
    0.0000    0.0000    0.0000 C   0  0  0  0  0  0  0  0  0  0  0  0
    0.0000    0.0000    0.0000 N   0  0  0  0  0  0  0  0  0  0  0  0
    0.0000    0.0000    0.0000 C   0  0  0  0  0  0  0  0  0  0  0  0
    0.0000    0.0000    0.0000 O   0  0  0  0  0  0  0  0  0  0  0  0
    0.0000    0.0000    0.0000 C   0  0  0  0  0  0  0  0  0  0  0  0
    0.0000    0.0000    0.0000 C   0  0  0  0  0  0  0  0  0  0  0  0
    0.0000    0.0000    0.0000 C   0  0  0  0  0  0  0  0  0  0  0  0
    0.0000    0.0000    0.0000 C   0  0  0  0  0  0  0  0  0  0  0  0
    0.0000    0.0000    0.0000 C   0  0  0  0  0  0  0  0  0  0  0  0
    0.0000    0.0000    0.0000 C   0  0  0  0  0  0  0  0  0  0  0  0
  1  2  1  0
  2  3  2  0
  3  4  1  0
  4  5  2  0
  5  6  1  0
  6  7  2  0
  5  8  1  0
  8  9  2  0
  8 10  1  0
 10 11  1  0
 11 12  1  0
 12 13  1  0
 13 14  1  0
 14 15  1  0
 15 16  1  0
 16 17  1  0
 17 18  1  0
 16 19  1  0
 19 20  1  0
 20 21  1  0
 21 22  1  0
 22 23  2  0
 19 24  1  0
 24 25  2  0
 25 26  1  0
 26 27  2  0
 27 28  1  0
 28 29  2  0
  7  2  1  0
 18 13  1  0
 22 16  1  0
 29 24  1  0
M  END
>  <pIC50>  (359) 
9.25

>  <ChEMBL_ID>  (359) 
CHEMBL267930

>  <document_journal>  (359) 
Bioorg. Med. Chem.

>  <bao_endpoint>  (359) 
BAO_0000190

>  <potential_duplicate>  (359) 
False

>  <uo_units>  (359) 
UO_0000065

>  <canonical_smiles>  (359) 
Fc1ccc(cc1)C(=O)CCCN2CCC3(CC2)N(CNC3=O)c4ccccc4

>  <parent_molecule_chembl_id>  (359) 
CHEMBL267930

>  <assay_type>  (359) 
B

>  <src_id>  (359) 
1

>  <ligand_efficiency>  (359) 
{u'le': u'0.42', u'bei': u'22.5', u'sei': u'16.9', u'lle': u'5.84'}

>  <standard_flag>  (359) 
True

>  <molecule_chembl_id>  (359) 
CHEMBL267930

>  <target_organism>  (359) 
Homo sapiens

>  <standard_units>  (359) 
nM

>  <record_id>  (359) 
1655115

>  <document_chembl_id>  (359) 
CHEMBL2057072

>  <bao_format>  (359) 
BAO_0000219

>  <data_validity_description>  (359) 
None

>  <activity_id>  (359) 
10959447

>  <standard_type>  (359) 
IC50

>  <target_chembl_id>  (359) 
CHEMBL217

>  <data_validity_comment>  (359) 
None

>  <published_value>  (359) 
1.27

>  <document_year>  (359) 
2012

>  <target_pref_name>  (359) 
Dopamine D2 receptor

>  <assay_chembl_id>  (359) 
CHEMBL2060922

>  <standard_relation>  (359) 
=

>  <assay_description>  (359) 
Displacement of [3H]Spiprone from human dopamine D2 receptor expressed in HEK293 cells

>  <published_relation>  (359) 
=

>  <standard_value>  (359) 
1.27

>  <qudt_units>  (359) 
http://www.openphacts.org/units/Nanomolar

>  <target_tax_id>  (359) 
9606

>  <bao_label>  (359) 
cell-based format

>  <published_units>  (359) 
nM

>  <pchembl_value>  (359) 
8.9

>  <published_type>  (359) 
IC50

>  <activity_comment>  (359) 
None

$$$$

     RDKit          

 24 27  0  0  0  0  0  0  0  0999 V2000
    0.0000    0.0000    0.0000 C   0  0  0  0  0  0  0  0  0  0  0  0
    0.0000    0.0000    0.0000 O   0  0  0  0  0  0  0  0  0  0  0  0
    0.0000    0.0000    0.0000 C   0  0  0  0  0  0  0  0  0  0  0  0
    0.0000    0.0000    0.0000 C   0  0  0  0  0  0  0  0  0  0  0  0
    0.0000    0.0000    0.0000 C   0  0  0  0  0  0  0  0  0  0  0  0
    0.0000    0.0000    0.0000 C   0  0  0  0  0  0  0  0  0  0  0  0
    0.0000    0.0000    0.0000 C   0  0  0  0  0  0  0  0  0  0  0  0
    0.0000    0.0000    0.0000 N   0  0  0  0  0  0  0  0  0  0  0  0
    0.0000    0.0000    0.0000 C   0  0  0  0  0  0  0  0  0  0  0  0
    0.0000    0.0000    0.0000 C   0  0  0  0  0  0  0  0  0  0  0  0
    0.0000    0.0000    0.0000 C   0  0  0  0  0  0  0  0  0  0  0  0
    0.0000    0.0000    0.0000 C   0  0  0  0  0  0  0  0  0  0  0  0
    0.0000    0.0000    0.0000 C   0  0  0  0  0  0  0  0  0  0  0  0
    0.0000    0.0000    0.0000 C   0  0  0  0  0  0  0  0  0  0  0  0
    0.0000    0.0000    0.0000 C   0  0  0  0  0  0  0  0  0  0  0  0
    0.0000    0.0000    0.0000 C   0  0  0  0  0  0  0  0  0  0  0  0
    0.0000    0.0000    0.0000 O   0  0  0  0  0  0  0  0  0  0  0  0
    0.0000    0.0000    0.0000 C   0  0  0  0  0  0  0  0  0  0  0  0
    0.0000    0.0000    0.0000 C   0  0  0  0  0  0  0  0  0  0  0  0
    0.0000    0.0000    0.0000 C   0  0  0  0  0  0  0  0  0  0  0  0
    0.0000    0.0000    0.0000 O   0  0  0  0  0  0  0  0  0  0  0  0
    0.0000    0.0000    0.0000 C   0  0  0  0  0  0  0  0  0  0  0  0
    0.0000    0.0000    0.0000 O   0  0  0  0  0  0  0  0  0  0  0  0
    0.0000    0.0000    0.0000 C   0  0  0  0  0  0  0  0  0  0  0  0
  1  2  1  0
  2  3  1  0
  3  4  2  0
  4  5  1  0
  5  6  1  0
  6  7  1  0
  7  8  1  0
  8  9  1  0
  9 10  1  0
 10 11  2  0
 11 12  1  0
 12 13  1  0
 13 14  1  0
 14 15  1  0
 15 16  2  0
 16 17  1  0
 11 18  1  0
 18 19  2  0
 19 20  1  0
 20 21  1  0
 20 22  2  0
 22 23  1  0
 23 24  1  0
 16  3  1  0
 14  5  2  0
 13  8  1  0
 22 10  1  0
M  END
>  <pIC50>  (360) 
6.17

>  <ChEMBL_ID>  (360) 
CHEMBL487387

>  <document_journal>  (360) 
Bioorg. Med. Chem.

>  <bao_endpoint>  (360) 
BAO_0000190

>  <potential_duplicate>  (360) 
False

>  <uo_units>  (360) 
UO_0000065

>  <canonical_smiles>  (360) 
COc1cc2CCN3Cc4c(C[C@H]3c2cc1O)ccc(O)c4OC

>  <parent_molecule_chembl_id>  (360) 
CHEMBL487387

>  <assay_type>  (360) 
B

>  <src_id>  (360) 
1

>  <ligand_efficiency>  (360) 
{u'le': u'0.4', u'bei': u'21.31', u'sei': u'11.22', u'lle': u'3.83'}

>  <standard_flag>  (360) 
True

>  <molecule_chembl_id>  (360) 
CHEMBL487387

>  <target_organism>  (360) 
Homo sapiens

>  <standard_units>  (360) 
nM

>  <record_id>  (360) 
1655113

>  <document_chembl_id>  (360) 
CHEMBL2057072

>  <bao_format>  (360) 
BAO_0000219

>  <data_validity_description>  (360) 
None

>  <activity_id>  (360) 
10959448

>  <standard_type>  (360) 
IC50

>  <target_chembl_id>  (360) 
CHEMBL217

>  <data_validity_comment>  (360) 
None

>  <published_value>  (360) 
105.41

>  <document_year>  (360) 
2012

>  <target_pref_name>  (360) 
Dopamine D2 receptor

>  <assay_chembl_id>  (360) 
CHEMBL2060922

>  <standard_relation>  (360) 
=

>  <assay_description>  (360) 
Displacement of [3H]Spiprone from human dopamine D2 receptor expressed in HEK293 cells

>  <published_relation>  (360) 
=

>  <standard_value>  (360) 
105.41

>  <qudt_units>  (360) 
http://www.openphacts.org/units/Nanomolar

>  <target_tax_id>  (360) 
9606

>  <bao_label>  (360) 
cell-based format

>  <published_units>  (360) 
nM

>  <pchembl_value>  (360) 
6.98

>  <published_type>  (360) 
IC50

>  <activity_comment>  (360) 
None

$$$$

     RDKit          

 23 26  0  0  0  0  0  0  0  0999 V2000
    0.0000    0.0000    0.0000 C   0  0  0  0  0  0  0  0  0  0  0  0
    0.0000    0.0000    0.0000 O   0  0  0  0  0  0  0  0  0  0  0  0
    0.0000    0.0000    0.0000 C   0  0  0  0  0  0  0  0  0  0  0  0
    0.0000    0.0000    0.0000 C   0  0  0  0  0  0  0  0  0  0  0  0
    0.0000    0.0000    0.0000 C   0  0  0  0  0  0  0  0  0  0  0  0
    0.0000    0.0000    0.0000 C   0  0  0  0  0  0  0  0  0  0  0  0
    0.0000    0.0000    0.0000 C   0  0  0  0  0  0  0  0  0  0  0  0
    0.0000    0.0000    0.0000 N   0  0  0  0  0  0  0  0  0  0  0  0
    0.0000    0.0000    0.0000 C   0  0  0  0  0  0  0  0  0  0  0  0
    0.0000    0.0000    0.0000 C   0  0  0  0  0  0  0  0  0  0  0  0
    0.0000    0.0000    0.0000 C   0  0  0  0  0  0  0  0  0  0  0  0
    0.0000    0.0000    0.0000 C   0  0  0  0  0  0  0  0  0  0  0  0
    0.0000    0.0000    0.0000 C   0  0  0  0  0  0  0  0  0  0  0  0
    0.0000    0.0000    0.0000 C   0  0  0  0  0  0  0  0  0  0  0  0
    0.0000    0.0000    0.0000 C   0  0  0  0  0  0  0  0  0  0  0  0
    0.0000    0.0000    0.0000 C   0  0  0  0  0  0  0  0  0  0  0  0
    0.0000    0.0000    0.0000 C   0  0  0  0  0  0  0  0  0  0  0  0
    0.0000    0.0000    0.0000 C   0  0  0  0  0  0  0  0  0  0  0  0
    0.0000    0.0000    0.0000 C   0  0  0  0  0  0  0  0  0  0  0  0
    0.0000    0.0000    0.0000 C   0  0  0  0  0  0  0  0  0  0  0  0
    0.0000    0.0000    0.0000 C   0  0  0  0  0  0  0  0  0  0  0  0
    0.0000    0.0000    0.0000 C   0  0  0  0  0  0  0  0  0  0  0  0
    0.0000    0.0000    0.0000 O   0  0  0  0  0  0  0  0  0  0  0  0
  1  2  1  0
  2  3  1  0
  3  4  2  0
  4  5  1  0
  5  6  1  0
  6  7  1  0
  7  8  1  0
  8  9  1  0
  9 10  1  0
 10 11  2  0
 11 12  1  0
 11 13  1  0
 13 14  2  0
 14 15  1  0
 14 16  1  0
 16 17  2  0
 17 18  1  0
 18 19  1  0
 19 20  1  0
 20 21  1  0
 21 22  2  0
 22 23  1  0
 22  3  1  0
 20  5  2  0
 19  8  1  0
 17 10  1  0
M  END
>  <pIC50>  (361) 
6.34

>  <ChEMBL_ID>  (361) 
CHEMBL2057457

>  <document_journal>  (361) 
Bioorg. Med. Chem.

>  <bao_endpoint>  (361) 
BAO_0000190

>  <potential_duplicate>  (361) 
False

>  <uo_units>  (361) 
UO_0000065

>  <canonical_smiles>  (361) 
COc1cc2CCN3Cc4c(C)cc(C)cc4C[C@H]3c2cc1O

>  <parent_molecule_chembl_id>  (361) 
CHEMBL2057457

>  <assay_type>  (361) 
B

>  <src_id>  (361) 
1

>  <ligand_efficiency>  (361) 
{u'le': u'0.38', u'bei': u'20.49', u'sei': u'19.39', u'lle': u'1.96'}

>  <standard_flag>  (361) 
True

>  <molecule_chembl_id>  (361) 
CHEMBL2057457

>  <target_organism>  (361) 
Homo sapiens

>  <standard_units>  (361) 
nM

>  <record_id>  (361) 
1655112

>  <document_chembl_id>  (361) 
CHEMBL2057072

>  <bao_format>  (361) 
BAO_0000219

>  <data_validity_description>  (361) 
None

>  <activity_id>  (361) 
10959449

>  <standard_type>  (361) 
IC50

>  <target_chembl_id>  (361) 
CHEMBL217

>  <data_validity_comment>  (361) 
None

>  <published_value>  (361) 
456.13

>  <document_year>  (361) 
2012

>  <target_pref_name>  (361) 
Dopamine D2 receptor

>  <assay_chembl_id>  (361) 
CHEMBL2060922

>  <standard_relation>  (361) 
=

>  <assay_description>  (361) 
Displacement of [3H]Spiprone from human dopamine D2 receptor expressed in HEK293 cells

>  <published_relation>  (361) 
=

>  <standard_value>  (361) 
456.13

>  <qudt_units>  (361) 
http://www.openphacts.org/units/Nanomolar

>  <target_tax_id>  (361) 
9606

>  <bao_label>  (361) 
cell-based format

>  <published_units>  (361) 
nM

>  <pchembl_value>  (361) 
6.34

>  <published_type>  (361) 
IC50

>  <activity_comment>  (361) 
None

$$$$

     RDKit          

 27 30  0  0  0  0  0  0  0  0999 V2000
    0.0000    0.0000    0.0000 C   0  0  0  0  0  0  0  0  0  0  0  0
    0.0000    0.0000    0.0000 O   0  0  0  0  0  0  0  0  0  0  0  0
    0.0000    0.0000    0.0000 C   0  0  0  0  0  0  0  0  0  0  0  0
    0.0000    0.0000    0.0000 C   0  0  0  0  0  0  0  0  0  0  0  0
    0.0000    0.0000    0.0000 C   0  0  0  0  0  0  0  0  0  0  0  0
    0.0000    0.0000    0.0000 C   0  0  0  0  0  0  0  0  0  0  0  0
    0.0000    0.0000    0.0000 C   0  0  0  0  0  0  0  0  0  0  0  0
    0.0000    0.0000    0.0000 N   0  0  0  0  0  0  0  0  0  0  0  0
    0.0000    0.0000    0.0000 C   0  0  0  0  0  0  0  0  0  0  0  0
    0.0000    0.0000    0.0000 C   0  0  0  0  0  0  0  0  0  0  0  0
    0.0000    0.0000    0.0000 C   0  0  0  0  0  0  0  0  0  0  0  0
    0.0000    0.0000    0.0000 C   0  0  0  0  0  0  0  0  0  0  0  0
    0.0000    0.0000    0.0000 C   0  0  0  0  0  0  0  0  0  0  0  0
    0.0000    0.0000    0.0000 C   0  0  0  0  0  0  0  0  0  0  0  0
    0.0000    0.0000    0.0000 C   0  0  0  0  0  0  0  0  0  0  0  0
    0.0000    0.0000    0.0000 C   0  0  0  0  0  0  0  0  0  0  0  0
    0.0000    0.0000    0.0000 O   0  0  0  0  0  0  0  0  0  0  0  0
    0.0000    0.0000    0.0000 C   0  0  0  0  0  0  0  0  0  0  0  0
    0.0000    0.0000    0.0000 C   0  0  0  0  0  0  0  0  0  0  0  0
    0.0000    0.0000    0.0000 O   0  0  0  0  0  0  0  0  0  0  0  0
    0.0000    0.0000    0.0000 C   0  0  0  0  0  0  0  0  0  0  0  0
    0.0000    0.0000    0.0000 O   0  0  0  0  0  0  0  0  0  0  0  0
    0.0000    0.0000    0.0000 C   0  0  0  0  0  0  0  0  0  0  0  0
    0.0000    0.0000    0.0000 C   0  0  0  0  0  0  0  0  0  0  0  0
    0.0000    0.0000    0.0000 C   0  0  0  0  0  0  0  0  0  0  0  0
    0.0000    0.0000    0.0000 O   0  0  0  0  0  0  0  0  0  0  0  0
    0.0000    0.0000    0.0000 C   0  0  0  0  0  0  0  0  0  0  0  0
  1  2  1  0
  2  3  1  0
  3  4  2  0
  4  5  1  0
  5  6  1  0
  6  7  1  0
  7  8  1  0
  8  9  1  0
  9 10  1  0
 10 11  2  0
 11 12  1  0
 12 13  1  0
 13 14  1  0
 14 15  1  0
 15 16  2  0
 16 17  1  0
 11 18  1  0
 18 19  1  0
 19 20  1  0
 18 21  2  0
 21 22  1  0
 22 23  1  0
 21 24  1  0
 24 25  2  0
 25 26  1  0
 26 27  1  0
 16  3  1  0
 14  5  2  0
 13  8  1  0
 25 10  1  0
M  END
>  <pIC50>  (362) 
6.29

>  <ChEMBL_ID>  (362) 
CHEMBL2057456

>  <document_journal>  (362) 
Bioorg. Med. Chem.

>  <bao_endpoint>  (362) 
BAO_0000190

>  <potential_duplicate>  (362) 
False

>  <uo_units>  (362) 
UO_0000065

>  <canonical_smiles>  (362) 
COc1cc2CCN3Cc4c(C[C@H]3c2cc1O)c(CO)c(OC)cc4OC

>  <parent_molecule_chembl_id>  (362) 
CHEMBL2057456

>  <assay_type>  (362) 
B

>  <src_id>  (362) 
1

>  <ligand_efficiency>  (362) 
{u'le': u'0.32', u'bei': u'16.93', u'sei': u'8.81', u'lle': u'3.52'}

>  <standard_flag>  (362) 
True

>  <molecule_chembl_id>  (362) 
CHEMBL2057456

>  <target_organism>  (362) 
Homo sapiens

>  <standard_units>  (362) 
nM

>  <record_id>  (362) 
1655111

>  <document_chembl_id>  (362) 
CHEMBL2057072

>  <bao_format>  (362) 
BAO_0000219

>  <data_validity_description>  (362) 
None

>  <activity_id>  (362) 
10959450

>  <standard_type>  (362) 
IC50

>  <target_chembl_id>  (362) 
CHEMBL217

>  <data_validity_comment>  (362) 
None

>  <published_value>  (362) 
514.46

>  <document_year>  (362) 
2012

>  <target_pref_name>  (362) 
Dopamine D2 receptor

>  <assay_chembl_id>  (362) 
CHEMBL2060922

>  <standard_relation>  (362) 
=

>  <assay_description>  (362) 
Displacement of [3H]Spiprone from human dopamine D2 receptor expressed in HEK293 cells

>  <published_relation>  (362) 
=

>  <standard_value>  (362) 
514.46

>  <qudt_units>  (362) 
http://www.openphacts.org/units/Nanomolar

>  <target_tax_id>  (362) 
9606

>  <bao_label>  (362) 
cell-based format

>  <published_units>  (362) 
nM

>  <pchembl_value>  (362) 
6.29

>  <published_type>  (362) 
IC50

>  <activity_comment>  (362) 
None

$$$$

     RDKit          

 23 26  0  0  0  0  0  0  0  0999 V2000
    0.0000    0.0000    0.0000 C   0  0  0  0  0  0  0  0  0  0  0  0
    0.0000    0.0000    0.0000 O   0  0  0  0  0  0  0  0  0  0  0  0
    0.0000    0.0000    0.0000 C   0  0  0  0  0  0  0  0  0  0  0  0
    0.0000    0.0000    0.0000 C   0  0  0  0  0  0  0  0  0  0  0  0
    0.0000    0.0000    0.0000 C   0  0  0  0  0  0  0  0  0  0  0  0
    0.0000    0.0000    0.0000 C   0  0  0  0  0  0  0  0  0  0  0  0
    0.0000    0.0000    0.0000 C   0  0  0  0  0  0  0  0  0  0  0  0
    0.0000    0.0000    0.0000 N   0  0  0  0  0  0  0  0  0  0  0  0
    0.0000    0.0000    0.0000 C   0  0  0  0  0  0  0  0  0  0  0  0
    0.0000    0.0000    0.0000 C   0  0  0  0  0  0  0  0  0  0  0  0
    0.0000    0.0000    0.0000 C   0  0  0  0  0  0  0  0  0  0  0  0
    0.0000    0.0000    0.0000 C   0  0  0  0  0  0  0  0  0  0  0  0
    0.0000    0.0000    0.0000 C   0  0  0  0  0  0  0  0  0  0  0  0
    0.0000    0.0000    0.0000 O   0  0  0  0  0  0  0  0  0  0  0  0
    0.0000    0.0000    0.0000 C   0  0  0  0  0  0  0  0  0  0  0  0
    0.0000    0.0000    0.0000 C   0  0  0  0  0  0  0  0  0  0  0  0
    0.0000    0.0000    0.0000 O   0  0  0  0  0  0  0  0  0  0  0  0
    0.0000    0.0000    0.0000 C   0  0  0  0  0  0  0  0  0  0  0  0
    0.0000    0.0000    0.0000 C   0  0  0  0  0  0  0  0  0  0  0  0
    0.0000    0.0000    0.0000 C   0  0  0  0  0  0  0  0  0  0  0  0
    0.0000    0.0000    0.0000 C   0  0  0  0  0  0  0  0  0  0  0  0
    0.0000    0.0000    0.0000 C   0  0  0  0  0  0  0  0  0  0  0  0
    0.0000    0.0000    0.0000 C   0  0  0  0  0  0  0  0  0  0  0  0
  1  2  1  0
  2  3  1  0
  3  4  2  0
  4  5  1  0
  5  6  2  0
  6  7  1  0
  7  8  1  0
  8  9  1  0
  9 10  1  0
 10 11  1  0
 11 12  2  0
 12 13  1  0
 13 14  1  0
 14 15  1  0
 13 16  2  0
 16 17  1  0
 16 18  1  0
 18 19  2  0
 19 20  1  0
 20 21  1  0
 21 22  1  0
 22 23  2  0
 23  3  1  0
 22  6  1  0
 20  8  1  0
 19 11  1  0
M  END
>  <pIC50>  (363) 
6.06

>  <ChEMBL_ID>  (363) 
CHEMBL2057453

>  <document_journal>  (363) 
Bioorg. Med. Chem.

>  <bao_endpoint>  (363) 
BAO_0000190

>  <potential_duplicate>  (363) 
False

>  <uo_units>  (363) 
UO_0000065

>  <canonical_smiles>  (363) 
COc1ccc2CN3CCc4cc(OC)c(O)cc4[C@@H]3Cc2c1

>  <parent_molecule_chembl_id>  (363) 
CHEMBL2057453

>  <assay_type>  (363) 
B

>  <src_id>  (363) 
1

>  <ligand_efficiency>  (363) 
{u'le': u'0.36', u'bei': u'19.46', u'sei': u'14.45', u'lle': u'2.67'}

>  <standard_flag>  (363) 
True

>  <molecule_chembl_id>  (363) 
CHEMBL2057453

>  <target_organism>  (363) 
Homo sapiens

>  <standard_units>  (363) 
nM

>  <record_id>  (363) 
1655108

>  <document_chembl_id>  (363) 
CHEMBL2057072

>  <bao_format>  (363) 
BAO_0000219

>  <data_validity_description>  (363) 
None

>  <activity_id>  (363) 
10959451

>  <standard_type>  (363) 
IC50

>  <target_chembl_id>  (363) 
CHEMBL217

>  <data_validity_comment>  (363) 
None

>  <published_value>  (363) 
873.14

>  <document_year>  (363) 
2012

>  <target_pref_name>  (363) 
Dopamine D2 receptor

>  <assay_chembl_id>  (363) 
CHEMBL2060922

>  <standard_relation>  (363) 
=

>  <assay_description>  (363) 
Displacement of [3H]Spiprone from human dopamine D2 receptor expressed in HEK293 cells

>  <published_relation>  (363) 
=

>  <standard_value>  (363) 
873.14

>  <qudt_units>  (363) 
http://www.openphacts.org/units/Nanomolar

>  <target_tax_id>  (363) 
9606

>  <bao_label>  (363) 
cell-based format

>  <published_units>  (363) 
nM

>  <pchembl_value>  (363) 
6.06

>  <published_type>  (363) 
IC50

>  <activity_comment>  (363) 
None

$$$$

     RDKit          

 24 27  0  0  0  0  0  0  0  0999 V2000
    0.0000    0.0000    0.0000 C   0  0  0  0  0  0  0  0  0  0  0  0
    0.0000    0.0000    0.0000 O   0  0  0  0  0  0  0  0  0  0  0  0
    0.0000    0.0000    0.0000 C   0  0  0  0  0  0  0  0  0  0  0  0
    0.0000    0.0000    0.0000 C   0  0  0  0  0  0  0  0  0  0  0  0
    0.0000    0.0000    0.0000 C   0  0  0  0  0  0  0  0  0  0  0  0
    0.0000    0.0000    0.0000 C   0  0  0  0  0  0  0  0  0  0  0  0
    0.0000    0.0000    0.0000 C   0  0  0  0  0  0  0  0  0  0  0  0
    0.0000    0.0000    0.0000 N   0  0  0  0  0  0  0  0  0  0  0  0
    0.0000    0.0000    0.0000 C   0  0  0  0  0  0  0  0  0  0  0  0
    0.0000    0.0000    0.0000 C   0  0  0  0  0  0  0  0  0  0  0  0
    0.0000    0.0000    0.0000 C   0  0  0  0  0  0  0  0  0  0  0  0
    0.0000    0.0000    0.0000 C   0  0  0  0  0  0  0  0  0  0  0  0
    0.0000    0.0000    0.0000 C   0  0  0  0  0  0  0  0  0  0  0  0
    0.0000    0.0000    0.0000 C   0  0  0  0  0  0  0  0  0  0  0  0
    0.0000    0.0000    0.0000 C   0  0  0  0  0  0  0  0  0  0  0  0
    0.0000    0.0000    0.0000 C   0  0  0  0  0  0  0  0  0  0  0  0
    0.0000    0.0000    0.0000 C   0  0  0  0  0  0  0  0  0  0  0  0
    0.0000    0.0000    0.0000 C   0  0  0  0  0  0  0  0  0  0  0  0
    0.0000    0.0000    0.0000 C   0  0  0  0  0  0  0  0  0  0  0  0
    0.0000    0.0000    0.0000 C   0  0  0  0  0  0  0  0  0  0  0  0
    0.0000    0.0000    0.0000 C   0  0  0  0  0  0  0  0  0  0  0  0
    0.0000    0.0000    0.0000 C   0  0  0  0  0  0  0  0  0  0  0  0
    0.0000    0.0000    0.0000 O   0  0  0  0  0  0  0  0  0  0  0  0
    0.0000    0.0000    0.0000 C   0  0  0  0  0  0  0  0  0  0  0  0
  1  2  1  0
  2  3  1  0
  3  4  2  0
  4  5  1  0
  5  6  1  0
  6  7  1  0
  7  8  1  0
  8  9  1  0
  9 10  1  0
 10 11  2  0
 11 12  1  0
 11 13  1  0
 13 14  2  0
 14 15  1  0
 14 16  1  0
 16 17  2  0
 17 18  1  0
 18 19  1  0
 19 20  1  0
 20 21  1  0
 21 22  2  0
 22 23  1  0
 23 24  1  0
 22  3  1  0
 20  5  2  0
 19  8  1  0
 17 10  1  0
M  END
>  <pIC50>  (364) 
5.94

>  <ChEMBL_ID>  (364) 
CHEMBL2057451

>  <document_journal>  (364) 
Bioorg. Med. Chem.

>  <bao_endpoint>  (364) 
BAO_0000190

>  <potential_duplicate>  (364) 
False

>  <uo_units>  (364) 
UO_0000065

>  <canonical_smiles>  (364) 
COc1cc2CCN3Cc4c(C)cc(C)cc4C[C@H]3c2cc1OC

>  <parent_molecule_chembl_id>  (364) 
CHEMBL2057451

>  <assay_type>  (364) 
B

>  <src_id>  (364) 
1

>  <ligand_efficiency>  (364) 
{u'le': u'0.34', u'bei': u'18.36', u'sei': u'27.36', u'lle': u'1.34'}

>  <standard_flag>  (364) 
True

>  <molecule_chembl_id>  (364) 
CHEMBL2057451

>  <target_organism>  (364) 
Homo sapiens

>  <standard_units>  (364) 
nM

>  <record_id>  (364) 
1655106

>  <document_chembl_id>  (364) 
CHEMBL2057072

>  <bao_format>  (364) 
BAO_0000219

>  <data_validity_description>  (364) 
None

>  <activity_id>  (364) 
10959452

>  <standard_type>  (364) 
IC50

>  <target_chembl_id>  (364) 
CHEMBL217

>  <data_validity_comment>  (364) 
None

>  <published_value>  (364) 
1155.3

>  <document_year>  (364) 
2012

>  <target_pref_name>  (364) 
Dopamine D2 receptor

>  <assay_chembl_id>  (364) 
CHEMBL2060922

>  <standard_relation>  (364) 
=

>  <assay_description>  (364) 
Displacement of [3H]Spiprone from human dopamine D2 receptor expressed in HEK293 cells

>  <published_relation>  (364) 
=

>  <standard_value>  (364) 
1155.3

>  <qudt_units>  (364) 
http://www.openphacts.org/units/Nanomolar

>  <target_tax_id>  (364) 
9606

>  <bao_label>  (364) 
cell-based format

>  <published_units>  (364) 
nM

>  <pchembl_value>  (364) 
5.94

>  <published_type>  (364) 
IC50

>  <activity_comment>  (364) 
None

$$$$

     RDKit          

 24 25  0  0  0  0  0  0  0  0999 V2000
    0.0000    0.0000    0.0000 C   0  0  0  0  0  0  0  0  0  0  0  0
    0.0000    0.0000    0.0000 C   0  0  0  0  0  0  0  0  0  0  0  0
    0.0000    0.0000    0.0000 C   0  0  0  0  0  0  0  0  0  0  0  0
    0.0000    0.0000    0.0000 C   0  0  0  0  0  0  0  0  0  0  0  0
    0.0000    0.0000    0.0000 C   0  0  0  0  0  0  0  0  0  0  0  0
    0.0000    0.0000    0.0000 C   0  0  0  0  0  0  0  0  0  0  0  0
    0.0000    0.0000    0.0000 N   0  0  0  0  0  0  0  0  0  0  0  0
    0.0000    0.0000    0.0000 C   0  0  0  0  0  0  0  0  0  0  0  0
    0.0000    0.0000    0.0000 C   0  0  0  0  0  0  0  0  0  0  0  0
    0.0000    0.0000    0.0000 C   0  0  0  0  0  0  0  0  0  0  0  0
    0.0000    0.0000    0.0000 C   0  0  0  0  0  0  0  0  0  0  0  0
    0.0000    0.0000    0.0000 C   0  0  0  0  0  0  0  0  0  0  0  0
    0.0000    0.0000    0.0000 C   0  0  0  0  0  0  0  0  0  0  0  0
    0.0000    0.0000    0.0000 C   0  0  0  0  0  0  0  0  0  0  0  0
    0.0000    0.0000    0.0000 C   0  0  0  0  0  0  0  0  0  0  0  0
    0.0000    0.0000    0.0000 C   0  0  0  0  0  0  0  0  0  0  0  0
    0.0000    0.0000    0.0000 C   0  0  0  0  0  0  0  0  0  0  0  0
    0.0000    0.0000    0.0000 C   0  0  0  0  0  0  0  0  0  0  0  0
    0.0000    0.0000    0.0000 C   0  0  0  0  0  0  0  0  0  0  0  0
    0.0000    0.0000    0.0000 C   0  0  0  0  0  0  0  0  0  0  0  0
    0.0000    0.0000    0.0000 C   0  0  0  0  0  0  0  0  0  0  0  0
    0.0000    0.0000    0.0000 C   0  0  0  0  0  0  0  0  0  0  0  0
    0.0000    0.0000    0.0000 O   0  0  0  0  0  0  0  0  0  0  0  0
    0.0000    0.0000    0.0000 C   0  0  0  0  0  0  0  0  0  0  0  0
  1  2  1  0
  2  3  1  0
  3  4  1  0
  4  5  1  0
  5  6  1  0
  6  7  1  0
  7  8  1  0
  8  9  1  0
  9 10  1  0
 10 11  2  0
 11 12  1  0
 12 13  2  0
 13 14  1  0
 14 15  2  0
  7 16  1  0
 16 17  1  0
 17 18  1  0
 18 19  2  0
 19 20  1  0
 20 21  2  0
 21 22  1  0
 22 23  1  0
 22 24  2  0
 15 10  1  0
 24 18  1  0
M  END
>  <pIC50>  (365) 
5.9

>  <ChEMBL_ID>  (365) 
CHEMBL2180641

>  <document_journal>  (365) 
J. Med. Chem.

>  <bao_endpoint>  (365) 
BAO_0000190

>  <potential_duplicate>  (365) 
False

>  <uo_units>  (365) 
UO_0000065

>  <canonical_smiles>  (365) 
CCCCCCN(CCc1ccccc1)CCc2cccc(O)c2

>  <parent_molecule_chembl_id>  (365) 
CHEMBL2180641

>  <assay_type>  (365) 
F

>  <src_id>  (365) 
1

>  <ligand_efficiency>  (365) 
None

>  <standard_flag>  (365) 
True

>  <molecule_chembl_id>  (365) 
CHEMBL2180641

>  <target_organism>  (365) 
Homo sapiens

>  <standard_units>  (365) 
nM

>  <record_id>  (365) 
1753932

>  <document_chembl_id>  (365) 
CHEMBL2177058

>  <bao_format>  (365) 
BAO_0000219

>  <data_validity_description>  (365) 
None

>  <activity_id>  (365) 
12164984

>  <standard_type>  (365) 
IC50

>  <target_chembl_id>  (365) 
CHEMBL217

>  <data_validity_comment>  (365) 
None

>  <published_value>  (365) 
1252

>  <document_year>  (365) 
2012

>  <target_pref_name>  (365) 
Dopamine D2 receptor

>  <assay_chembl_id>  (365) 
CHEMBL2182829

>  <standard_relation>  (365) 
=

>  <assay_description>  (365) 
Antagonist activity at human dopamine D2 receptor expressed in CHOp cells assessed as inhibition of quinpirol-induced mitogenesis incubated for 24 hrs by [3H]thymidine incorporation assay

>  <published_relation>  (365) 
=

>  <standard_value>  (365) 
1252

>  <qudt_units>  (365) 
http://www.openphacts.org/units/Nanomolar

>  <target_tax_id>  (365) 
9606

>  <bao_label>  (365) 
cell-based format

>  <published_units>  (365) 
nM

>  <pchembl_value>  (365) 
5.9

>  <published_type>  (365) 
IC50

>  <activity_comment>  (365) 
None

$$$$

     RDKit          

 23 25  0  0  0  0  0  0  0  0999 V2000
    0.0000    0.0000    0.0000 O   0  0  0  0  0  0  0  0  0  0  0  0
    0.0000    0.0000    0.0000 C   0  0  0  0  0  0  0  0  0  0  0  0
    0.0000    0.0000    0.0000 C   0  0  0  0  0  0  0  0  0  0  0  0
    0.0000    0.0000    0.0000 C   0  0  0  0  0  0  0  0  0  0  0  0
    0.0000    0.0000    0.0000 C   0  0  0  0  0  0  0  0  0  0  0  0
    0.0000    0.0000    0.0000 C   0  0  0  0  0  0  0  0  0  0  0  0
    0.0000    0.0000    0.0000 C   0  0  0  0  0  0  0  0  0  0  0  0
    0.0000    0.0000    0.0000 C   0  0  0  0  0  0  0  0  0  0  0  0
    0.0000    0.0000    0.0000 N   0  0  0  0  0  0  0  0  0  0  0  0
    0.0000    0.0000    0.0000 C   0  0  0  0  0  0  0  0  0  0  0  0
    0.0000    0.0000    0.0000 C   0  0  0  0  0  0  0  0  0  0  0  0
    0.0000    0.0000    0.0000 C   0  0  0  0  0  0  0  0  0  0  0  0
    0.0000    0.0000    0.0000 C   0  0  0  0  0  0  0  0  0  0  0  0
    0.0000    0.0000    0.0000 C   0  0  0  0  0  0  0  0  0  0  0  0
    0.0000    0.0000    0.0000 C   0  0  0  0  0  0  0  0  0  0  0  0
    0.0000    0.0000    0.0000 C   0  0  0  0  0  0  0  0  0  0  0  0
    0.0000    0.0000    0.0000 C   0  0  0  0  0  0  0  0  0  0  0  0
    0.0000    0.0000    0.0000 C   0  0  0  0  0  0  0  0  0  0  0  0
    0.0000    0.0000    0.0000 C   0  0  0  0  0  0  0  0  0  0  0  0
    0.0000    0.0000    0.0000 C   0  0  0  0  0  0  0  0  0  0  0  0
    0.0000    0.0000    0.0000 C   0  0  0  0  0  0  0  0  0  0  0  0
    0.0000    0.0000    0.0000 C   0  0  0  0  0  0  0  0  0  0  0  0
    0.0000    0.0000    0.0000 C   0  0  0  0  0  0  0  0  0  0  0  0
  1  2  1  0
  2  3  2  0
  3  4  1  0
  4  5  2  0
  5  6  1  0
  6  7  1  0
  7  8  1  0
  8  9  1  0
  9 10  1  0
 10 11  1  0
 11 12  1  0
 12 13  2  0
 13 14  1  0
 14 15  2  0
 15 16  1  0
 16 17  2  0
  9 18  1  0
 18 19  1  0
 19 20  1  0
 20 21  1  0
 21 22  1  0
  6 23  2  0
 23  2  1  0
 17 12  1  0
 22 19  1  0
M  END
>  <pIC50>  (366) 
5.78

>  <ChEMBL_ID>  (366) 
CHEMBL2180639

>  <document_journal>  (366) 
J. Med. Chem.

>  <bao_endpoint>  (366) 
BAO_0000190

>  <potential_duplicate>  (366) 
False

>  <uo_units>  (366) 
UO_0000065

>  <canonical_smiles>  (366) 
Oc1cccc(CCN(CCc2ccccc2)CC3CCC3)c1

>  <parent_molecule_chembl_id>  (366) 
CHEMBL2180639

>  <assay_type>  (366) 
F

>  <src_id>  (366) 
1

>  <ligand_efficiency>  (366) 
None

>  <standard_flag>  (366) 
True

>  <molecule_chembl_id>  (366) 
CHEMBL2180639

>  <target_organism>  (366) 
Homo sapiens

>  <standard_units>  (366) 
nM

>  <record_id>  (366) 
1753930

>  <document_chembl_id>  (366) 
CHEMBL2177058

>  <bao_format>  (366) 
BAO_0000219

>  <data_validity_description>  (366) 
None

>  <activity_id>  (366) 
12164985

>  <standard_type>  (366) 
IC50

>  <target_chembl_id>  (366) 
CHEMBL217

>  <data_validity_comment>  (366) 
None

>  <published_value>  (366) 
1647

>  <document_year>  (366) 
2012

>  <target_pref_name>  (366) 
Dopamine D2 receptor

>  <assay_chembl_id>  (366) 
CHEMBL2182829

>  <standard_relation>  (366) 
=

>  <assay_description>  (366) 
Antagonist activity at human dopamine D2 receptor expressed in CHOp cells assessed as inhibition of quinpirol-induced mitogenesis incubated for 24 hrs by [3H]thymidine incorporation assay

>  <published_relation>  (366) 
=

>  <standard_value>  (366) 
1647

>  <qudt_units>  (366) 
http://www.openphacts.org/units/Nanomolar

>  <target_tax_id>  (366) 
9606

>  <bao_label>  (366) 
cell-based format

>  <published_units>  (366) 
nM

>  <pchembl_value>  (366) 
5.78

>  <published_type>  (366) 
IC50

>  <activity_comment>  (366) 
None

$$$$

     RDKit          

 22 25  0  0  0  0  0  0  0  0999 V2000
    0.0000    0.0000    0.0000 C   0  0  0  0  0  0  0  0  0  0  0  0
    0.0000    0.0000    0.0000 N   0  0  0  0  0  0  0  0  0  0  0  0
    0.0000    0.0000    0.0000 C   0  0  0  0  0  0  0  0  0  0  0  0
    0.0000    0.0000    0.0000 C   0  0  0  0  0  0  0  0  0  0  0  0
    0.0000    0.0000    0.0000 C   0  0  0  0  0  0  0  0  0  0  0  0
    0.0000    0.0000    0.0000 C   0  0  0  0  0  0  0  0  0  0  0  0
    0.0000    0.0000    0.0000 N   0  0  0  0  0  0  0  0  0  0  0  0
    0.0000    0.0000    0.0000 C   0  0  0  0  0  0  0  0  0  0  0  0
    0.0000    0.0000    0.0000 C   0  0  0  0  0  0  0  0  0  0  0  0
    0.0000    0.0000    0.0000 C   0  0  0  0  0  0  0  0  0  0  0  0
    0.0000    0.0000    0.0000 C   0  0  0  0  0  0  0  0  0  0  0  0
    0.0000    0.0000    0.0000 C   0  0  0  0  0  0  0  0  0  0  0  0
    0.0000    0.0000    0.0000 N   0  0  0  0  0  0  0  0  0  0  0  0
    0.0000    0.0000    0.0000 C   0  0  0  0  0  0  0  0  0  0  0  0
    0.0000    0.0000    0.0000 N   0  0  0  0  0  0  0  0  0  0  0  0
    0.0000    0.0000    0.0000 S   0  0  0  0  0  0  0  0  0  0  0  0
    0.0000    0.0000    0.0000 C   0  0  0  0  0  0  0  0  0  0  0  0
    0.0000    0.0000    0.0000 C   0  0  0  0  0  0  0  0  0  0  0  0
    0.0000    0.0000    0.0000 C   0  0  0  0  0  0  0  0  0  0  0  0
    0.0000    0.0000    0.0000 C   0  0  0  0  0  0  0  0  0  0  0  0
    0.0000    0.0000    0.0000 C   0  0  0  0  0  0  0  0  0  0  0  0
    0.0000    0.0000    0.0000 N   0  0  0  0  0  0  0  0  0  0  0  0
  1  2  1  0
  2  3  1  0
  3  4  2  0
  4  5  1  0
  5  6  1  0
  6  7  1  0
  7  8  1  0
  8  9  1  0
  9 10  1  0
 10 11  2  0
 11 12  1  0
 12 13  1  0
 13 14  2  0
 14 15  1  0
 14 16  1  0
 16 17  1  0
 17 18  1  0
 18 19  2  0
 19 20  1  0
 20 21  1  0
  5 22  2  0
 22  2  1  0
 21  7  1  0
 19 10  1  0
 17 12  2  0
M  END
>  <pIC50>  (367) 
5.36

>  <ChEMBL_ID>  (367) 
CHEMBL2326473

>  <document_journal>  (367) 
Bioorg. Med. Chem. Lett.

>  <bao_endpoint>  (367) 
BAO_0000190

>  <potential_duplicate>  (367) 
False

>  <uo_units>  (367) 
UO_0000065

>  <canonical_smiles>  (367) 
Cn1ccc(CN2CCc3cc4nc(N)sc4cc3CC2)n1

>  <parent_molecule_chembl_id>  (367) 
CHEMBL2326473

>  <assay_type>  (367) 
F

>  <src_id>  (367) 
1

>  <ligand_efficiency>  (367) 
None

>  <standard_flag>  (367) 
True

>  <molecule_chembl_id>  (367) 
CHEMBL2326473

>  <target_organism>  (367) 
Homo sapiens

>  <standard_units>  (367) 
nM

>  <record_id>  (367) 
1852954

>  <document_chembl_id>  (367) 
CHEMBL2321835

>  <bao_format>  (367) 
BAO_0000219

>  <data_validity_description>  (367) 
None

>  <activity_id>  (367) 
12652678

>  <standard_type>  (367) 
IC50

>  <target_chembl_id>  (367) 
CHEMBL217

>  <data_validity_comment>  (367) 
None

>  <published_value>  (367) 
4.4

>  <document_year>  (367) 
2013

>  <target_pref_name>  (367) 
Dopamine D2 receptor

>  <assay_chembl_id>  (367) 
CHEMBL2328744

>  <standard_relation>  (367) 
=

>  <assay_description>  (367) 
Antagonist activity at human D2 dopamine receptor expressed in CHO cell membrane by GTPgammaS-binding assay

>  <published_relation>  (367) 
=

>  <standard_value>  (367) 
4400

>  <qudt_units>  (367) 
http://www.openphacts.org/units/Nanomolar

>  <target_tax_id>  (367) 
9606

>  <bao_label>  (367) 
cell-based format

>  <published_units>  (367) 
uM

>  <pchembl_value>  (367) 
5.36

>  <published_type>  (367) 
IC50

>  <activity_comment>  (367) 
None

$$$$

     RDKit          

 22 25  0  0  0  0  0  0  0  0999 V2000
    0.0000    0.0000    0.0000 C   0  0  0  0  0  0  0  0  0  0  0  0
    0.0000    0.0000    0.0000 N   0  0  0  0  0  0  0  0  0  0  0  0
    0.0000    0.0000    0.0000 C   0  0  0  0  0  0  0  0  0  0  0  0
    0.0000    0.0000    0.0000 C   0  0  0  0  0  0  0  0  0  0  0  0
    0.0000    0.0000    0.0000 C   0  0  0  0  0  0  0  0  0  0  0  0
    0.0000    0.0000    0.0000 N   0  0  0  0  0  0  0  0  0  0  0  0
    0.0000    0.0000    0.0000 C   0  0  0  0  0  0  0  0  0  0  0  0
    0.0000    0.0000    0.0000 C   0  0  0  0  0  0  0  0  0  0  0  0
    0.0000    0.0000    0.0000 C   0  0  0  0  0  0  0  0  0  0  0  0
    0.0000    0.0000    0.0000 C   0  0  0  0  0  0  0  0  0  0  0  0
    0.0000    0.0000    0.0000 C   0  0  0  0  0  0  0  0  0  0  0  0
    0.0000    0.0000    0.0000 N   0  0  0  0  0  0  0  0  0  0  0  0
    0.0000    0.0000    0.0000 C   0  0  0  0  0  0  0  0  0  0  0  0
    0.0000    0.0000    0.0000 N   0  0  0  0  0  0  0  0  0  0  0  0
    0.0000    0.0000    0.0000 S   0  0  0  0  0  0  0  0  0  0  0  0
    0.0000    0.0000    0.0000 C   0  0  0  0  0  0  0  0  0  0  0  0
    0.0000    0.0000    0.0000 C   0  0  0  0  0  0  0  0  0  0  0  0
    0.0000    0.0000    0.0000 C   0  0  0  0  0  0  0  0  0  0  0  0
    0.0000    0.0000    0.0000 C   0  0  0  0  0  0  0  0  0  0  0  0
    0.0000    0.0000    0.0000 C   0  0  0  0  0  0  0  0  0  0  0  0
    0.0000    0.0000    0.0000 C   0  0  0  0  0  0  0  0  0  0  0  0
    0.0000    0.0000    0.0000 N   0  0  0  0  0  0  0  0  0  0  0  0
  1  2  1  0
  2  3  1  0
  3  4  2  0
  4  5  1  0
  5  6  1  0
  6  7  1  0
  7  8  1  0
  8  9  1  0
  9 10  2  0
 10 11  1  0
 11 12  1  0
 12 13  2  0
 13 14  1  0
 13 15  1  0
 15 16  1  0
 16 17  1  0
 17 18  2  0
 18 19  1  0
 19 20  1  0
  4 21  1  0
 21 22  2  0
 22  2  1  0
 20  6  1  0
 18  9  1  0
 16 11  2  0
M  END
>  <pIC50>  (368) 
6.06

>  <ChEMBL_ID>  (368) 
CHEMBL2326472

>  <document_journal>  (368) 
Bioorg. Med. Chem. Lett.

>  <bao_endpoint>  (368) 
BAO_0000190

>  <potential_duplicate>  (368) 
False

>  <uo_units>  (368) 
UO_0000065

>  <canonical_smiles>  (368) 
Cn1cc(CN2CCc3cc4nc(N)sc4cc3CC2)cn1

>  <parent_molecule_chembl_id>  (368) 
CHEMBL2326472

>  <assay_type>  (368) 
F

>  <src_id>  (368) 
1

>  <ligand_efficiency>  (368) 
None

>  <standard_flag>  (368) 
True

>  <molecule_chembl_id>  (368) 
CHEMBL2326472

>  <target_organism>  (368) 
Homo sapiens

>  <standard_units>  (368) 
nM

>  <record_id>  (368) 
1852953

>  <document_chembl_id>  (368) 
CHEMBL2321835

>  <bao_format>  (368) 
BAO_0000219

>  <data_validity_description>  (368) 
None

>  <activity_id>  (368) 
12652679

>  <standard_type>  (368) 
IC50

>  <target_chembl_id>  (368) 
CHEMBL217

>  <data_validity_comment>  (368) 
None

>  <published_value>  (368) 
0.87

>  <document_year>  (368) 
2013

>  <target_pref_name>  (368) 
Dopamine D2 receptor

>  <assay_chembl_id>  (368) 
CHEMBL2328744

>  <standard_relation>  (368) 
=

>  <assay_description>  (368) 
Antagonist activity at human D2 dopamine receptor expressed in CHO cell membrane by GTPgammaS-binding assay

>  <published_relation>  (368) 
=

>  <standard_value>  (368) 
870

>  <qudt_units>  (368) 
http://www.openphacts.org/units/Nanomolar

>  <target_tax_id>  (368) 
9606

>  <bao_label>  (368) 
cell-based format

>  <published_units>  (368) 
uM

>  <pchembl_value>  (368) 
6.06

>  <published_type>  (368) 
IC50

>  <activity_comment>  (368) 
None

$$$$

     RDKit          

 21 24  0  0  0  0  0  0  0  0999 V2000
    0.0000    0.0000    0.0000 N   0  0  0  0  0  0  0  0  0  0  0  0
    0.0000    0.0000    0.0000 C   0  0  0  0  0  0  0  0  0  0  0  0
    0.0000    0.0000    0.0000 N   0  0  0  0  0  0  0  0  0  0  0  0
    0.0000    0.0000    0.0000 C   0  0  0  0  0  0  0  0  0  0  0  0
    0.0000    0.0000    0.0000 C   0  0  0  0  0  0  0  0  0  0  0  0
    0.0000    0.0000    0.0000 C   0  0  0  0  0  0  0  0  0  0  0  0
    0.0000    0.0000    0.0000 C   0  0  0  0  0  0  0  0  0  0  0  0
    0.0000    0.0000    0.0000 C   0  0  0  0  0  0  0  0  0  0  0  0
    0.0000    0.0000    0.0000 N   0  0  0  0  0  0  0  0  0  0  0  0
    0.0000    0.0000    0.0000 C   0  0  0  0  0  0  0  0  0  0  0  0
    0.0000    0.0000    0.0000 C   0  0  0  0  0  0  0  0  0  0  0  0
    0.0000    0.0000    0.0000 N   0  0  0  0  0  0  0  0  0  0  0  0
    0.0000    0.0000    0.0000 O   0  0  0  0  0  0  0  0  0  0  0  0
    0.0000    0.0000    0.0000 C   0  0  0  0  0  0  0  0  0  0  0  0
    0.0000    0.0000    0.0000 N   0  0  0  0  0  0  0  0  0  0  0  0
    0.0000    0.0000    0.0000 C   0  0  0  0  0  0  0  0  0  0  0  0
    0.0000    0.0000    0.0000 C   0  0  0  0  0  0  0  0  0  0  0  0
    0.0000    0.0000    0.0000 C   0  0  0  0  0  0  0  0  0  0  0  0
    0.0000    0.0000    0.0000 C   0  0  0  0  0  0  0  0  0  0  0  0
    0.0000    0.0000    0.0000 C   0  0  0  0  0  0  0  0  0  0  0  0
    0.0000    0.0000    0.0000 S   0  0  0  0  0  0  0  0  0  0  0  0
  1  2  1  0
  2  3  2  0
  3  4  1  0
  4  5  2  0
  5  6  1  0
  6  7  1  0
  7  8  1  0
  8  9  1  0
  9 10  1  0
 10 11  1  0
 11 12  2  0
 12 13  1  0
 13 14  1  0
 14 15  2  0
  9 16  1  0
 16 17  1  0
 17 18  1  0
 18 19  1  0
 19 20  2  0
 20 21  1  0
 21  2  1  0
 20  4  1  0
 18  6  2  0
 15 11  1  0
M  END
>  <pIC50>  (369) 
5.0

>  <ChEMBL_ID>  (369) 
CHEMBL2326471

>  <document_journal>  (369) 
Bioorg. Med. Chem. Lett.

>  <bao_endpoint>  (369) 
BAO_0000190

>  <potential_duplicate>  (369) 
False

>  <uo_units>  (369) 
UO_0000065

>  <canonical_smiles>  (369) 
Nc1nc2cc3CCN(Cc4nocn4)CCc3cc2s1

>  <parent_molecule_chembl_id>  (369) 
CHEMBL2326471

>  <assay_type>  (369) 
F

>  <src_id>  (369) 
1

>  <ligand_efficiency>  (369) 
None

>  <standard_flag>  (369) 
True

>  <molecule_chembl_id>  (369) 
CHEMBL2326471

>  <target_organism>  (369) 
Homo sapiens

>  <standard_units>  (369) 
nM

>  <record_id>  (369) 
1852952

>  <document_chembl_id>  (369) 
CHEMBL2321835

>  <bao_format>  (369) 
BAO_0000219

>  <data_validity_description>  (369) 
None

>  <activity_id>  (369) 
12652680

>  <standard_type>  (369) 
IC50

>  <target_chembl_id>  (369) 
CHEMBL217

>  <data_validity_comment>  (369) 
None

>  <published_value>  (369) 
10

>  <document_year>  (369) 
2013

>  <target_pref_name>  (369) 
Dopamine D2 receptor

>  <assay_chembl_id>  (369) 
CHEMBL2328744

>  <standard_relation>  (369) 
=

>  <assay_description>  (369) 
Antagonist activity at human D2 dopamine receptor expressed in CHO cell membrane by GTPgammaS-binding assay

>  <published_relation>  (369) 
=

>  <standard_value>  (369) 
10000

>  <qudt_units>  (369) 
http://www.openphacts.org/units/Nanomolar

>  <target_tax_id>  (369) 
9606

>  <bao_label>  (369) 
cell-based format

>  <published_units>  (369) 
uM

>  <pchembl_value>  (369) 
5

>  <published_type>  (369) 
IC50

>  <activity_comment>  (369) 
None

$$$$

     RDKit          

 21 24  0  0  0  0  0  0  0  0999 V2000
    0.0000    0.0000    0.0000 N   0  0  0  0  0  0  0  0  0  0  0  0
    0.0000    0.0000    0.0000 C   0  0  0  0  0  0  0  0  0  0  0  0
    0.0000    0.0000    0.0000 N   0  0  0  0  0  0  0  0  0  0  0  0
    0.0000    0.0000    0.0000 C   0  0  0  0  0  0  0  0  0  0  0  0
    0.0000    0.0000    0.0000 C   0  0  0  0  0  0  0  0  0  0  0  0
    0.0000    0.0000    0.0000 C   0  0  0  0  0  0  0  0  0  0  0  0
    0.0000    0.0000    0.0000 C   0  0  0  0  0  0  0  0  0  0  0  0
    0.0000    0.0000    0.0000 C   0  0  0  0  0  0  0  0  0  0  0  0
    0.0000    0.0000    0.0000 N   0  0  0  0  0  0  0  0  0  0  0  0
    0.0000    0.0000    0.0000 C   0  0  0  0  0  0  0  0  0  0  0  0
    0.0000    0.0000    0.0000 C   0  0  0  0  0  0  0  0  0  0  0  0
    0.0000    0.0000    0.0000 C   0  0  0  0  0  0  0  0  0  0  0  0
    0.0000    0.0000    0.0000 N   0  0  0  0  0  0  0  0  0  0  0  0
    0.0000    0.0000    0.0000 C   0  0  0  0  0  0  0  0  0  0  0  0
    0.0000    0.0000    0.0000 N   0  0  0  0  0  0  0  0  0  0  0  0
    0.0000    0.0000    0.0000 C   0  0  0  0  0  0  0  0  0  0  0  0
    0.0000    0.0000    0.0000 C   0  0  0  0  0  0  0  0  0  0  0  0
    0.0000    0.0000    0.0000 C   0  0  0  0  0  0  0  0  0  0  0  0
    0.0000    0.0000    0.0000 C   0  0  0  0  0  0  0  0  0  0  0  0
    0.0000    0.0000    0.0000 C   0  0  0  0  0  0  0  0  0  0  0  0
    0.0000    0.0000    0.0000 S   0  0  0  0  0  0  0  0  0  0  0  0
  1  2  1  0
  2  3  2  0
  3  4  1  0
  4  5  2  0
  5  6  1  0
  6  7  1  0
  7  8  1  0
  8  9  1  0
  9 10  1  0
 10 11  1  0
 11 12  2  0
 12 13  1  0
 13 14  2  0
 14 15  1  0
  9 16  1  0
 16 17  1  0
 17 18  1  0
 18 19  1  0
 19 20  2  0
 20 21  1  0
 21  2  1  0
 20  4  1  0
 18  6  2  0
 15 11  1  0
M  END
>  <pIC50>  (370) 
5.82

>  <ChEMBL_ID>  (370) 
CHEMBL2326470

>  <document_journal>  (370) 
Bioorg. Med. Chem. Lett.

>  <bao_endpoint>  (370) 
BAO_0000190

>  <potential_duplicate>  (370) 
False

>  <uo_units>  (370) 
UO_0000065

>  <canonical_smiles>  (370) 
Nc1nc2cc3CCN(Cc4cnc[nH]4)CCc3cc2s1

>  <parent_molecule_chembl_id>  (370) 
CHEMBL2326470

>  <assay_type>  (370) 
F

>  <src_id>  (370) 
1

>  <ligand_efficiency>  (370) 
None

>  <standard_flag>  (370) 
True

>  <molecule_chembl_id>  (370) 
CHEMBL2326470

>  <target_organism>  (370) 
Homo sapiens

>  <standard_units>  (370) 
nM

>  <record_id>  (370) 
1852951

>  <document_chembl_id>  (370) 
CHEMBL2321835

>  <bao_format>  (370) 
BAO_0000219

>  <data_validity_description>  (370) 
None

>  <activity_id>  (370) 
12652681

>  <standard_type>  (370) 
IC50

>  <target_chembl_id>  (370) 
CHEMBL217

>  <data_validity_comment>  (370) 
None

>  <published_value>  (370) 
1.5

>  <document_year>  (370) 
2013

>  <target_pref_name>  (370) 
Dopamine D2 receptor

>  <assay_chembl_id>  (370) 
CHEMBL2328744

>  <standard_relation>  (370) 
=

>  <assay_description>  (370) 
Antagonist activity at human D2 dopamine receptor expressed in CHO cell membrane by GTPgammaS-binding assay

>  <published_relation>  (370) 
=

>  <standard_value>  (370) 
1500

>  <qudt_units>  (370) 
http://www.openphacts.org/units/Nanomolar

>  <target_tax_id>  (370) 
9606

>  <bao_label>  (370) 
cell-based format

>  <published_units>  (370) 
uM

>  <pchembl_value>  (370) 
5.82

>  <published_type>  (370) 
IC50

>  <activity_comment>  (370) 
None

$$$$

     RDKit          

 21 24  0  0  0  0  0  0  0  0999 V2000
    0.0000    0.0000    0.0000 N   0  0  0  0  0  0  0  0  0  0  0  0
    0.0000    0.0000    0.0000 C   0  0  0  0  0  0  0  0  0  0  0  0
    0.0000    0.0000    0.0000 N   0  0  0  0  0  0  0  0  0  0  0  0
    0.0000    0.0000    0.0000 C   0  0  0  0  0  0  0  0  0  0  0  0
    0.0000    0.0000    0.0000 C   0  0  0  0  0  0  0  0  0  0  0  0
    0.0000    0.0000    0.0000 C   0  0  0  0  0  0  0  0  0  0  0  0
    0.0000    0.0000    0.0000 C   0  0  0  0  0  0  0  0  0  0  0  0
    0.0000    0.0000    0.0000 C   0  0  0  0  0  0  0  0  0  0  0  0
    0.0000    0.0000    0.0000 N   0  0  0  0  0  0  0  0  0  0  0  0
    0.0000    0.0000    0.0000 C   0  0  0  0  0  0  0  0  0  0  0  0
    0.0000    0.0000    0.0000 C   0  0  0  0  0  0  0  0  0  0  0  0
    0.0000    0.0000    0.0000 C   0  0  0  0  0  0  0  0  0  0  0  0
    0.0000    0.0000    0.0000 S   0  0  0  0  0  0  0  0  0  0  0  0
    0.0000    0.0000    0.0000 C   0  0  0  0  0  0  0  0  0  0  0  0
    0.0000    0.0000    0.0000 N   0  0  0  0  0  0  0  0  0  0  0  0
    0.0000    0.0000    0.0000 C   0  0  0  0  0  0  0  0  0  0  0  0
    0.0000    0.0000    0.0000 C   0  0  0  0  0  0  0  0  0  0  0  0
    0.0000    0.0000    0.0000 C   0  0  0  0  0  0  0  0  0  0  0  0
    0.0000    0.0000    0.0000 C   0  0  0  0  0  0  0  0  0  0  0  0
    0.0000    0.0000    0.0000 C   0  0  0  0  0  0  0  0  0  0  0  0
    0.0000    0.0000    0.0000 S   0  0  0  0  0  0  0  0  0  0  0  0
  1  2  1  0
  2  3  2  0
  3  4  1  0
  4  5  2  0
  5  6  1  0
  6  7  1  0
  7  8  1  0
  8  9  1  0
  9 10  1  0
 10 11  1  0
 11 12  2  0
 12 13  1  0
 13 14  1  0
 14 15  2  0
  9 16  1  0
 16 17  1  0
 17 18  1  0
 18 19  1  0
 19 20  2  0
 20 21  1  0
 21  2  1  0
 20  4  1  0
 18  6  2  0
 15 11  1  0
M  END
>  <pIC50>  (371) 
5.92

>  <ChEMBL_ID>  (371) 
CHEMBL2326469

>  <document_journal>  (371) 
Bioorg. Med. Chem. Lett.

>  <bao_endpoint>  (371) 
BAO_0000190

>  <potential_duplicate>  (371) 
False

>  <uo_units>  (371) 
UO_0000065

>  <canonical_smiles>  (371) 
Nc1nc2cc3CCN(Cc4cscn4)CCc3cc2s1

>  <parent_molecule_chembl_id>  (371) 
CHEMBL2326469

>  <assay_type>  (371) 
F

>  <src_id>  (371) 
1

>  <ligand_efficiency>  (371) 
None

>  <standard_flag>  (371) 
True

>  <molecule_chembl_id>  (371) 
CHEMBL2326469

>  <target_organism>  (371) 
Homo sapiens

>  <standard_units>  (371) 
nM

>  <record_id>  (371) 
1852950

>  <document_chembl_id>  (371) 
CHEMBL2321835

>  <bao_format>  (371) 
BAO_0000219

>  <data_validity_description>  (371) 
None

>  <activity_id>  (371) 
12652682

>  <standard_type>  (371) 
IC50

>  <target_chembl_id>  (371) 
CHEMBL217

>  <data_validity_comment>  (371) 
None

>  <published_value>  (371) 
1.2

>  <document_year>  (371) 
2013

>  <target_pref_name>  (371) 
Dopamine D2 receptor

>  <assay_chembl_id>  (371) 
CHEMBL2328744

>  <standard_relation>  (371) 
=

>  <assay_description>  (371) 
Antagonist activity at human D2 dopamine receptor expressed in CHO cell membrane by GTPgammaS-binding assay

>  <published_relation>  (371) 
=

>  <standard_value>  (371) 
1200

>  <qudt_units>  (371) 
http://www.openphacts.org/units/Nanomolar

>  <target_tax_id>  (371) 
9606

>  <bao_label>  (371) 
cell-based format

>  <published_units>  (371) 
uM

>  <pchembl_value>  (371) 
5.92

>  <published_type>  (371) 
IC50

>  <activity_comment>  (371) 
None

$$$$

     RDKit          

 21 24  0  0  0  0  0  0  0  0999 V2000
    0.0000    0.0000    0.0000 N   0  0  0  0  0  0  0  0  0  0  0  0
    0.0000    0.0000    0.0000 C   0  0  0  0  0  0  0  0  0  0  0  0
    0.0000    0.0000    0.0000 N   0  0  0  0  0  0  0  0  0  0  0  0
    0.0000    0.0000    0.0000 C   0  0  0  0  0  0  0  0  0  0  0  0
    0.0000    0.0000    0.0000 C   0  0  0  0  0  0  0  0  0  0  0  0
    0.0000    0.0000    0.0000 C   0  0  0  0  0  0  0  0  0  0  0  0
    0.0000    0.0000    0.0000 C   0  0  0  0  0  0  0  0  0  0  0  0
    0.0000    0.0000    0.0000 C   0  0  0  0  0  0  0  0  0  0  0  0
    0.0000    0.0000    0.0000 N   0  0  0  0  0  0  0  0  0  0  0  0
    0.0000    0.0000    0.0000 C   0  0  0  0  0  0  0  0  0  0  0  0
    0.0000    0.0000    0.0000 C   0  0  0  0  0  0  0  0  0  0  0  0
    0.0000    0.0000    0.0000 O   0  0  0  0  0  0  0  0  0  0  0  0
    0.0000    0.0000    0.0000 C   0  0  0  0  0  0  0  0  0  0  0  0
    0.0000    0.0000    0.0000 N   0  0  0  0  0  0  0  0  0  0  0  0
    0.0000    0.0000    0.0000 C   0  0  0  0  0  0  0  0  0  0  0  0
    0.0000    0.0000    0.0000 C   0  0  0  0  0  0  0  0  0  0  0  0
    0.0000    0.0000    0.0000 C   0  0  0  0  0  0  0  0  0  0  0  0
    0.0000    0.0000    0.0000 C   0  0  0  0  0  0  0  0  0  0  0  0
    0.0000    0.0000    0.0000 C   0  0  0  0  0  0  0  0  0  0  0  0
    0.0000    0.0000    0.0000 C   0  0  0  0  0  0  0  0  0  0  0  0
    0.0000    0.0000    0.0000 S   0  0  0  0  0  0  0  0  0  0  0  0
  1  2  1  0
  2  3  2  0
  3  4  1  0
  4  5  2  0
  5  6  1  0
  6  7  1  0
  7  8  1  0
  8  9  1  0
  9 10  1  0
 10 11  1  0
 11 12  1  0
 12 13  1  0
 13 14  2  0
 14 15  1  0
  9 16  1  0
 16 17  1  0
 17 18  1  0
 18 19  1  0
 19 20  2  0
 20 21  1  0
 21  2  1  0
 20  4  1  0
 18  6  2  0
 15 11  2  0
M  END
>  <pIC50>  (372) 
5.6

>  <ChEMBL_ID>  (372) 
CHEMBL2326468

>  <document_journal>  (372) 
Bioorg. Med. Chem. Lett.

>  <bao_endpoint>  (372) 
BAO_0000190

>  <potential_duplicate>  (372) 
False

>  <uo_units>  (372) 
UO_0000065

>  <canonical_smiles>  (372) 
Nc1nc2cc3CCN(Cc4ocnc4)CCc3cc2s1

>  <parent_molecule_chembl_id>  (372) 
CHEMBL2326468

>  <assay_type>  (372) 
F

>  <src_id>  (372) 
1

>  <ligand_efficiency>  (372) 
None

>  <standard_flag>  (372) 
True

>  <molecule_chembl_id>  (372) 
CHEMBL2326468

>  <target_organism>  (372) 
Homo sapiens

>  <standard_units>  (372) 
nM

>  <record_id>  (372) 
1852949

>  <document_chembl_id>  (372) 
CHEMBL2321835

>  <bao_format>  (372) 
BAO_0000219

>  <data_validity_description>  (372) 
None

>  <activity_id>  (372) 
12652683

>  <standard_type>  (372) 
IC50

>  <target_chembl_id>  (372) 
CHEMBL217

>  <data_validity_comment>  (372) 
None

>  <published_value>  (372) 
2.5

>  <document_year>  (372) 
2013

>  <target_pref_name>  (372) 
Dopamine D2 receptor

>  <assay_chembl_id>  (372) 
CHEMBL2328744

>  <standard_relation>  (372) 
=

>  <assay_description>  (372) 
Antagonist activity at human D2 dopamine receptor expressed in CHO cell membrane by GTPgammaS-binding assay

>  <published_relation>  (372) 
=

>  <standard_value>  (372) 
2500

>  <qudt_units>  (372) 
http://www.openphacts.org/units/Nanomolar

>  <target_tax_id>  (372) 
9606

>  <bao_label>  (372) 
cell-based format

>  <published_units>  (372) 
uM

>  <pchembl_value>  (372) 
5.6

>  <published_type>  (372) 
IC50

>  <activity_comment>  (372) 
None

$$$$

     RDKit          

 22 25  0  0  0  0  0  0  0  0999 V2000
    0.0000    0.0000    0.0000 N   0  0  0  0  0  0  0  0  0  0  0  0
    0.0000    0.0000    0.0000 C   0  0  0  0  0  0  0  0  0  0  0  0
    0.0000    0.0000    0.0000 N   0  0  0  0  0  0  0  0  0  0  0  0
    0.0000    0.0000    0.0000 C   0  0  0  0  0  0  0  0  0  0  0  0
    0.0000    0.0000    0.0000 C   0  0  0  0  0  0  0  0  0  0  0  0
    0.0000    0.0000    0.0000 C   0  0  0  0  0  0  0  0  0  0  0  0
    0.0000    0.0000    0.0000 C   0  0  0  0  0  0  0  0  0  0  0  0
    0.0000    0.0000    0.0000 C   0  0  0  0  0  0  0  0  0  0  0  0
    0.0000    0.0000    0.0000 N   0  0  0  0  0  0  0  0  0  0  0  0
    0.0000    0.0000    0.0000 C   0  0  0  0  0  0  0  0  0  0  0  0
    0.0000    0.0000    0.0000 C   0  0  0  0  0  0  0  0  0  0  0  0
    0.0000    0.0000    0.0000 C   0  0  0  0  0  0  0  0  0  0  0  0
    0.0000    0.0000    0.0000 C   0  0  0  0  0  0  0  0  0  0  0  0
    0.0000    0.0000    0.0000 N   0  0  0  0  0  0  0  0  0  0  0  0
    0.0000    0.0000    0.0000 C   0  0  0  0  0  0  0  0  0  0  0  0
    0.0000    0.0000    0.0000 C   0  0  0  0  0  0  0  0  0  0  0  0
    0.0000    0.0000    0.0000 C   0  0  0  0  0  0  0  0  0  0  0  0
    0.0000    0.0000    0.0000 C   0  0  0  0  0  0  0  0  0  0  0  0
    0.0000    0.0000    0.0000 C   0  0  0  0  0  0  0  0  0  0  0  0
    0.0000    0.0000    0.0000 C   0  0  0  0  0  0  0  0  0  0  0  0
    0.0000    0.0000    0.0000 C   0  0  0  0  0  0  0  0  0  0  0  0
    0.0000    0.0000    0.0000 S   0  0  0  0  0  0  0  0  0  0  0  0
  1  2  1  0
  2  3  2  0
  3  4  1  0
  4  5  2  0
  5  6  1  0
  6  7  1  0
  7  8  1  0
  8  9  1  0
  9 10  1  0
 10 11  1  0
 11 12  2  0
 12 13  1  0
 13 14  2  0
 14 15  1  0
 15 16  2  0
  9 17  1  0
 17 18  1  0
 18 19  1  0
 19 20  1  0
 20 21  2  0
 21 22  1  0
 22  2  1  0
 21  4  1  0
 19  6  2  0
 16 11  1  0
M  END
>  <pIC50>  (373) 
5.35

>  <ChEMBL_ID>  (373) 
CHEMBL2326485

>  <document_journal>  (373) 
Bioorg. Med. Chem. Lett.

>  <bao_endpoint>  (373) 
BAO_0000190

>  <potential_duplicate>  (373) 
False

>  <uo_units>  (373) 
UO_0000065

>  <canonical_smiles>  (373) 
Nc1nc2cc3CCN(Cc4ccncc4)CCc3cc2s1

>  <parent_molecule_chembl_id>  (373) 
CHEMBL2326485

>  <assay_type>  (373) 
F

>  <src_id>  (373) 
1

>  <ligand_efficiency>  (373) 
None

>  <standard_flag>  (373) 
True

>  <molecule_chembl_id>  (373) 
CHEMBL2326485

>  <target_organism>  (373) 
Homo sapiens

>  <standard_units>  (373) 
nM

>  <record_id>  (373) 
1852966

>  <document_chembl_id>  (373) 
CHEMBL2321835

>  <bao_format>  (373) 
BAO_0000219

>  <data_validity_description>  (373) 
None

>  <activity_id>  (373) 
12652684

>  <standard_type>  (373) 
IC50

>  <target_chembl_id>  (373) 
CHEMBL217

>  <data_validity_comment>  (373) 
None

>  <published_value>  (373) 
4.5

>  <document_year>  (373) 
2013

>  <target_pref_name>  (373) 
Dopamine D2 receptor

>  <assay_chembl_id>  (373) 
CHEMBL2328744

>  <standard_relation>  (373) 
=

>  <assay_description>  (373) 
Antagonist activity at human D2 dopamine receptor expressed in CHO cell membrane by GTPgammaS-binding assay

>  <published_relation>  (373) 
=

>  <standard_value>  (373) 
4500

>  <qudt_units>  (373) 
http://www.openphacts.org/units/Nanomolar

>  <target_tax_id>  (373) 
9606

>  <bao_label>  (373) 
cell-based format

>  <published_units>  (373) 
uM

>  <pchembl_value>  (373) 
5.35

>  <published_type>  (373) 
IC50

>  <activity_comment>  (373) 
None

$$$$

     RDKit          

 22 25  0  0  0  0  0  0  0  0999 V2000
    0.0000    0.0000    0.0000 N   0  0  0  0  0  0  0  0  0  0  0  0
    0.0000    0.0000    0.0000 C   0  0  0  0  0  0  0  0  0  0  0  0
    0.0000    0.0000    0.0000 N   0  0  0  0  0  0  0  0  0  0  0  0
    0.0000    0.0000    0.0000 C   0  0  0  0  0  0  0  0  0  0  0  0
    0.0000    0.0000    0.0000 C   0  0  0  0  0  0  0  0  0  0  0  0
    0.0000    0.0000    0.0000 C   0  0  0  0  0  0  0  0  0  0  0  0
    0.0000    0.0000    0.0000 C   0  0  0  0  0  0  0  0  0  0  0  0
    0.0000    0.0000    0.0000 C   0  0  0  0  0  0  0  0  0  0  0  0
    0.0000    0.0000    0.0000 N   0  0  0  0  0  0  0  0  0  0  0  0
    0.0000    0.0000    0.0000 C   0  0  0  0  0  0  0  0  0  0  0  0
    0.0000    0.0000    0.0000 C   0  0  0  0  0  0  0  0  0  0  0  0
    0.0000    0.0000    0.0000 C   0  0  0  0  0  0  0  0  0  0  0  0
    0.0000    0.0000    0.0000 C   0  0  0  0  0  0  0  0  0  0  0  0
    0.0000    0.0000    0.0000 C   0  0  0  0  0  0  0  0  0  0  0  0
    0.0000    0.0000    0.0000 N   0  0  0  0  0  0  0  0  0  0  0  0
    0.0000    0.0000    0.0000 C   0  0  0  0  0  0  0  0  0  0  0  0
    0.0000    0.0000    0.0000 C   0  0  0  0  0  0  0  0  0  0  0  0
    0.0000    0.0000    0.0000 C   0  0  0  0  0  0  0  0  0  0  0  0
    0.0000    0.0000    0.0000 C   0  0  0  0  0  0  0  0  0  0  0  0
    0.0000    0.0000    0.0000 C   0  0  0  0  0  0  0  0  0  0  0  0
    0.0000    0.0000    0.0000 C   0  0  0  0  0  0  0  0  0  0  0  0
    0.0000    0.0000    0.0000 S   0  0  0  0  0  0  0  0  0  0  0  0
  1  2  1  0
  2  3  2  0
  3  4  1  0
  4  5  2  0
  5  6  1  0
  6  7  1  0
  7  8  1  0
  8  9  1  0
  9 10  1  0
 10 11  1  0
 11 12  2  0
 12 13  1  0
 13 14  2  0
 14 15  1  0
 15 16  2  0
  9 17  1  0
 17 18  1  0
 18 19  1  0
 19 20  1  0
 20 21  2  0
 21 22  1  0
 22  2  1  0
 21  4  1  0
 19  6  2  0
 16 11  1  0
M  END
>  <pIC50>  (374) 
5.77

>  <ChEMBL_ID>  (374) 
CHEMBL2326484

>  <document_journal>  (374) 
Bioorg. Med. Chem. Lett.

>  <bao_endpoint>  (374) 
BAO_0000190

>  <potential_duplicate>  (374) 
False

>  <uo_units>  (374) 
UO_0000065

>  <canonical_smiles>  (374) 
Nc1nc2cc3CCN(Cc4cccnc4)CCc3cc2s1

>  <parent_molecule_chembl_id>  (374) 
CHEMBL2326484

>  <assay_type>  (374) 
F

>  <src_id>  (374) 
1

>  <ligand_efficiency>  (374) 
None

>  <standard_flag>  (374) 
True

>  <molecule_chembl_id>  (374) 
CHEMBL2326484

>  <target_organism>  (374) 
Homo sapiens

>  <standard_units>  (374) 
nM

>  <record_id>  (374) 
1852965

>  <document_chembl_id>  (374) 
CHEMBL2321835

>  <bao_format>  (374) 
BAO_0000219

>  <data_validity_description>  (374) 
None

>  <activity_id>  (374) 
12652685

>  <standard_type>  (374) 
IC50

>  <target_chembl_id>  (374) 
CHEMBL217

>  <data_validity_comment>  (374) 
None

>  <published_value>  (374) 
1.7

>  <document_year>  (374) 
2013

>  <target_pref_name>  (374) 
Dopamine D2 receptor

>  <assay_chembl_id>  (374) 
CHEMBL2328744

>  <standard_relation>  (374) 
=

>  <assay_description>  (374) 
Antagonist activity at human D2 dopamine receptor expressed in CHO cell membrane by GTPgammaS-binding assay

>  <published_relation>  (374) 
=

>  <standard_value>  (374) 
1700

>  <qudt_units>  (374) 
http://www.openphacts.org/units/Nanomolar

>  <target_tax_id>  (374) 
9606

>  <bao_label>  (374) 
cell-based format

>  <published_units>  (374) 
uM

>  <pchembl_value>  (374) 
5.77

>  <published_type>  (374) 
IC50

>  <activity_comment>  (374) 
None

$$$$

     RDKit          

 22 25  0  0  0  0  0  0  0  0999 V2000
    0.0000    0.0000    0.0000 N   0  0  0  0  0  0  0  0  0  0  0  0
    0.0000    0.0000    0.0000 C   0  0  0  0  0  0  0  0  0  0  0  0
    0.0000    0.0000    0.0000 N   0  0  0  0  0  0  0  0  0  0  0  0
    0.0000    0.0000    0.0000 C   0  0  0  0  0  0  0  0  0  0  0  0
    0.0000    0.0000    0.0000 C   0  0  0  0  0  0  0  0  0  0  0  0
    0.0000    0.0000    0.0000 C   0  0  0  0  0  0  0  0  0  0  0  0
    0.0000    0.0000    0.0000 C   0  0  0  0  0  0  0  0  0  0  0  0
    0.0000    0.0000    0.0000 C   0  0  0  0  0  0  0  0  0  0  0  0
    0.0000    0.0000    0.0000 N   0  0  0  0  0  0  0  0  0  0  0  0
    0.0000    0.0000    0.0000 C   0  0  0  0  0  0  0  0  0  0  0  0
    0.0000    0.0000    0.0000 C   0  0  0  0  0  0  0  0  0  0  0  0
    0.0000    0.0000    0.0000 C   0  0  0  0  0  0  0  0  0  0  0  0
    0.0000    0.0000    0.0000 C   0  0  0  0  0  0  0  0  0  0  0  0
    0.0000    0.0000    0.0000 C   0  0  0  0  0  0  0  0  0  0  0  0
    0.0000    0.0000    0.0000 C   0  0  0  0  0  0  0  0  0  0  0  0
    0.0000    0.0000    0.0000 N   0  0  0  0  0  0  0  0  0  0  0  0
    0.0000    0.0000    0.0000 C   0  0  0  0  0  0  0  0  0  0  0  0
    0.0000    0.0000    0.0000 C   0  0  0  0  0  0  0  0  0  0  0  0
    0.0000    0.0000    0.0000 C   0  0  0  0  0  0  0  0  0  0  0  0
    0.0000    0.0000    0.0000 C   0  0  0  0  0  0  0  0  0  0  0  0
    0.0000    0.0000    0.0000 C   0  0  0  0  0  0  0  0  0  0  0  0
    0.0000    0.0000    0.0000 S   0  0  0  0  0  0  0  0  0  0  0  0
  1  2  1  0
  2  3  2  0
  3  4  1  0
  4  5  2  0
  5  6  1  0
  6  7  1  0
  7  8  1  0
  8  9  1  0
  9 10  1  0
 10 11  1  0
 11 12  2  0
 12 13  1  0
 13 14  2  0
 14 15  1  0
 15 16  2  0
  9 17  1  0
 17 18  1  0
 18 19  1  0
 19 20  1  0
 20 21  2  0
 21 22  1  0
 22  2  1  0
 21  4  1  0
 19  6  2  0
 16 11  1  0
M  END
>  <pIC50>  (375) 
5.1

>  <ChEMBL_ID>  (375) 
CHEMBL2326483

>  <document_journal>  (375) 
Bioorg. Med. Chem. Lett.

>  <bao_endpoint>  (375) 
BAO_0000190

>  <potential_duplicate>  (375) 
False

>  <uo_units>  (375) 
UO_0000065

>  <canonical_smiles>  (375) 
Nc1nc2cc3CCN(Cc4ccccn4)CCc3cc2s1

>  <parent_molecule_chembl_id>  (375) 
CHEMBL2326483

>  <assay_type>  (375) 
F

>  <src_id>  (375) 
1

>  <ligand_efficiency>  (375) 
None

>  <standard_flag>  (375) 
True

>  <molecule_chembl_id>  (375) 
CHEMBL2326483

>  <target_organism>  (375) 
Homo sapiens

>  <standard_units>  (375) 
nM

>  <record_id>  (375) 
1852964

>  <document_chembl_id>  (375) 
CHEMBL2321835

>  <bao_format>  (375) 
BAO_0000219

>  <data_validity_description>  (375) 
None

>  <activity_id>  (375) 
12652686

>  <standard_type>  (375) 
IC50

>  <target_chembl_id>  (375) 
CHEMBL217

>  <data_validity_comment>  (375) 
None

>  <published_value>  (375) 
8

>  <document_year>  (375) 
2013

>  <target_pref_name>  (375) 
Dopamine D2 receptor

>  <assay_chembl_id>  (375) 
CHEMBL2328744

>  <standard_relation>  (375) 
=

>  <assay_description>  (375) 
Antagonist activity at human D2 dopamine receptor expressed in CHO cell membrane by GTPgammaS-binding assay

>  <published_relation>  (375) 
=

>  <standard_value>  (375) 
8000

>  <qudt_units>  (375) 
http://www.openphacts.org/units/Nanomolar

>  <target_tax_id>  (375) 
9606

>  <bao_label>  (375) 
cell-based format

>  <published_units>  (375) 
uM

>  <pchembl_value>  (375) 
5.1

>  <published_type>  (375) 
IC50

>  <activity_comment>  (375) 
None

$$$$

     RDKit          

 27 30  0  0  0  0  0  0  0  0999 V2000
    0.0000    0.0000    0.0000 C   0  0  0  0  0  0  0  0  0  0  0  0
    0.0000    0.0000    0.0000 N   0  0  0  0  0  0  0  0  0  0  0  0
    0.0000    0.0000    0.0000 C   0  0  0  0  0  0  0  0  0  0  0  0
    0.0000    0.0000    0.0000 C   0  0  0  0  0  0  0  0  0  0  0  0
    0.0000    0.0000    0.0000 O   0  0  0  0  0  0  0  0  0  0  0  0
    0.0000    0.0000    0.0000 C   0  0  0  0  0  0  0  0  0  0  0  0
    0.0000    0.0000    0.0000 C   0  0  0  0  0  0  0  0  0  0  0  0
    0.0000    0.0000    0.0000 C   0  0  0  0  0  0  0  0  0  0  0  0
    0.0000    0.0000    0.0000 C   0  0  0  0  0  0  0  0  0  0  0  0
    0.0000    0.0000    0.0000 C   0  0  0  0  0  0  0  0  0  0  0  0
    0.0000    0.0000    0.0000 C   0  0  0  0  0  0  0  0  0  0  0  0
    0.0000    0.0000    0.0000 N   0  0  0  0  0  0  0  0  0  0  0  0
    0.0000    0.0000    0.0000 C   0  0  0  0  0  0  0  0  0  0  0  0
    0.0000    0.0000    0.0000 C   0  0  0  0  0  0  0  0  0  0  0  0
    0.0000    0.0000    0.0000 C   0  0  0  0  0  0  0  0  0  0  0  0
    0.0000    0.0000    0.0000 C   0  0  0  0  0  0  0  0  0  0  0  0
    0.0000    0.0000    0.0000 C   0  0  0  0  0  0  0  0  0  0  0  0
    0.0000    0.0000    0.0000 N   0  0  0  0  0  0  0  0  0  0  0  0
    0.0000    0.0000    0.0000 C   0  0  0  0  0  0  0  0  0  0  0  0
    0.0000    0.0000    0.0000 N   0  0  0  0  0  0  0  0  0  0  0  0
    0.0000    0.0000    0.0000 S   0  0  0  0  0  0  0  0  0  0  0  0
    0.0000    0.0000    0.0000 C   0  0  0  0  0  0  0  0  0  0  0  0
    0.0000    0.0000    0.0000 C   0  0  0  0  0  0  0  0  0  0  0  0
    0.0000    0.0000    0.0000 C   0  0  0  0  0  0  0  0  0  0  0  0
    0.0000    0.0000    0.0000 C   0  0  0  0  0  0  0  0  0  0  0  0
    0.0000    0.0000    0.0000 C   0  0  0  0  0  0  0  0  0  0  0  0
    0.0000    0.0000    0.0000 C   0  0  0  0  0  0  0  0  0  0  0  0
  1  2  1  0
  2  3  1  0
  2  4  1  0
  4  5  2  0
  4  6  1  0
  6  7  2  0
  7  8  1  0
  8  9  2  0
  9 10  1  0
 10 11  1  0
 11 12  1  0
 12 13  1  0
 13 14  1  0
 14 15  1  0
 15 16  2  0
 16 17  1  0
 17 18  1  0
 18 19  2  0
 19 20  1  0
 19 21  1  0
 21 22  1  0
 22 23  1  0
 23 24  2  0
 24 25  1  0
 25 26  1  0
 10 27  2  0
 27  6  1  0
 26 12  1  0
 24 15  1  0
 22 17  2  0
M  END
>  <pIC50>  (376) 
6.0

>  <ChEMBL_ID>  (376) 
CHEMBL2326482

>  <document_journal>  (376) 
Bioorg. Med. Chem. Lett.

>  <bao_endpoint>  (376) 
BAO_0000190

>  <potential_duplicate>  (376) 
False

>  <uo_units>  (376) 
UO_0000065

>  <canonical_smiles>  (376) 
CN(C)C(=O)c1cccc(CN2CCc3cc4nc(N)sc4cc3CC2)c1

>  <parent_molecule_chembl_id>  (376) 
CHEMBL2326482

>  <assay_type>  (376) 
F

>  <src_id>  (376) 
1

>  <ligand_efficiency>  (376) 
None

>  <standard_flag>  (376) 
True

>  <molecule_chembl_id>  (376) 
CHEMBL2326482

>  <target_organism>  (376) 
Homo sapiens

>  <standard_units>  (376) 
nM

>  <record_id>  (376) 
1852963

>  <document_chembl_id>  (376) 
CHEMBL2321835

>  <bao_format>  (376) 
BAO_0000219

>  <data_validity_description>  (376) 
None

>  <activity_id>  (376) 
12652687

>  <standard_type>  (376) 
IC50

>  <target_chembl_id>  (376) 
CHEMBL217

>  <data_validity_comment>  (376) 
None

>  <published_value>  (376) 
1

>  <document_year>  (376) 
2013

>  <target_pref_name>  (376) 
Dopamine D2 receptor

>  <assay_chembl_id>  (376) 
CHEMBL2328744

>  <standard_relation>  (376) 
=

>  <assay_description>  (376) 
Antagonist activity at human D2 dopamine receptor expressed in CHO cell membrane by GTPgammaS-binding assay

>  <published_relation>  (376) 
=

>  <standard_value>  (376) 
1000

>  <qudt_units>  (376) 
http://www.openphacts.org/units/Nanomolar

>  <target_tax_id>  (376) 
9606

>  <bao_label>  (376) 
cell-based format

>  <published_units>  (376) 
uM

>  <pchembl_value>  (376) 
6

>  <published_type>  (376) 
IC50

>  <activity_comment>  (376) 
None

$$$$

     RDKit          

 27 30  0  0  0  0  0  0  0  0999 V2000
    0.0000    0.0000    0.0000 C   0  0  0  0  0  0  0  0  0  0  0  0
    0.0000    0.0000    0.0000 N   0  0  0  0  0  0  0  0  0  0  0  0
    0.0000    0.0000    0.0000 C   0  0  0  0  0  0  0  0  0  0  0  0
    0.0000    0.0000    0.0000 C   0  0  0  0  0  0  0  0  0  0  0  0
    0.0000    0.0000    0.0000 O   0  0  0  0  0  0  0  0  0  0  0  0
    0.0000    0.0000    0.0000 C   0  0  0  0  0  0  0  0  0  0  0  0
    0.0000    0.0000    0.0000 C   0  0  0  0  0  0  0  0  0  0  0  0
    0.0000    0.0000    0.0000 C   0  0  0  0  0  0  0  0  0  0  0  0
    0.0000    0.0000    0.0000 C   0  0  0  0  0  0  0  0  0  0  0  0
    0.0000    0.0000    0.0000 C   0  0  0  0  0  0  0  0  0  0  0  0
    0.0000    0.0000    0.0000 N   0  0  0  0  0  0  0  0  0  0  0  0
    0.0000    0.0000    0.0000 C   0  0  0  0  0  0  0  0  0  0  0  0
    0.0000    0.0000    0.0000 C   0  0  0  0  0  0  0  0  0  0  0  0
    0.0000    0.0000    0.0000 C   0  0  0  0  0  0  0  0  0  0  0  0
    0.0000    0.0000    0.0000 C   0  0  0  0  0  0  0  0  0  0  0  0
    0.0000    0.0000    0.0000 C   0  0  0  0  0  0  0  0  0  0  0  0
    0.0000    0.0000    0.0000 N   0  0  0  0  0  0  0  0  0  0  0  0
    0.0000    0.0000    0.0000 C   0  0  0  0  0  0  0  0  0  0  0  0
    0.0000    0.0000    0.0000 N   0  0  0  0  0  0  0  0  0  0  0  0
    0.0000    0.0000    0.0000 S   0  0  0  0  0  0  0  0  0  0  0  0
    0.0000    0.0000    0.0000 C   0  0  0  0  0  0  0  0  0  0  0  0
    0.0000    0.0000    0.0000 C   0  0  0  0  0  0  0  0  0  0  0  0
    0.0000    0.0000    0.0000 C   0  0  0  0  0  0  0  0  0  0  0  0
    0.0000    0.0000    0.0000 C   0  0  0  0  0  0  0  0  0  0  0  0
    0.0000    0.0000    0.0000 C   0  0  0  0  0  0  0  0  0  0  0  0
    0.0000    0.0000    0.0000 C   0  0  0  0  0  0  0  0  0  0  0  0
    0.0000    0.0000    0.0000 C   0  0  0  0  0  0  0  0  0  0  0  0
  1  2  1  0
  2  3  1  0
  2  4  1  0
  4  5  2  0
  4  6  1  0
  6  7  2  0
  7  8  1  0
  8  9  2  0
  9 10  1  0
 10 11  1  0
 11 12  1  0
 12 13  1  0
 13 14  1  0
 14 15  2  0
 15 16  1  0
 16 17  1  0
 17 18  2  0
 18 19  1  0
 18 20  1  0
 20 21  1  0
 21 22  1  0
 22 23  2  0
 23 24  1  0
 24 25  1  0
  9 26  1  0
 26 27  2  0
 27  6  1  0
 25 11  1  0
 23 14  1  0
 21 16  2  0
M  END
>  <pIC50>  (377) 
6.52

>  <ChEMBL_ID>  (377) 
CHEMBL2326481

>  <document_journal>  (377) 
Bioorg. Med. Chem. Lett.

>  <bao_endpoint>  (377) 
BAO_0000190

>  <potential_duplicate>  (377) 
False

>  <uo_units>  (377) 
UO_0000065

>  <canonical_smiles>  (377) 
CN(C)C(=O)c1ccc(CN2CCc3cc4nc(N)sc4cc3CC2)cc1

>  <parent_molecule_chembl_id>  (377) 
CHEMBL2326481

>  <assay_type>  (377) 
F

>  <src_id>  (377) 
1

>  <ligand_efficiency>  (377) 
None

>  <standard_flag>  (377) 
True

>  <molecule_chembl_id>  (377) 
CHEMBL2326481

>  <target_organism>  (377) 
Homo sapiens

>  <standard_units>  (377) 
nM

>  <record_id>  (377) 
1852962

>  <document_chembl_id>  (377) 
CHEMBL2321835

>  <bao_format>  (377) 
BAO_0000219

>  <data_validity_description>  (377) 
None

>  <activity_id>  (377) 
12652688

>  <standard_type>  (377) 
IC50

>  <target_chembl_id>  (377) 
CHEMBL217

>  <data_validity_comment>  (377) 
None

>  <published_value>  (377) 
0.3

>  <document_year>  (377) 
2013

>  <target_pref_name>  (377) 
Dopamine D2 receptor

>  <assay_chembl_id>  (377) 
CHEMBL2328744

>  <standard_relation>  (377) 
=

>  <assay_description>  (377) 
Antagonist activity at human D2 dopamine receptor expressed in CHO cell membrane by GTPgammaS-binding assay

>  <published_relation>  (377) 
=

>  <standard_value>  (377) 
300

>  <qudt_units>  (377) 
http://www.openphacts.org/units/Nanomolar

>  <target_tax_id>  (377) 
9606

>  <bao_label>  (377) 
cell-based format

>  <published_units>  (377) 
uM

>  <pchembl_value>  (377) 
6.52

>  <published_type>  (377) 
IC50

>  <activity_comment>  (377) 
None

$$$$

     RDKit          

 24 27  0  0  0  0  0  0  0  0999 V2000
    0.0000    0.0000    0.0000 C   0  0  0  0  0  0  0  0  0  0  0  0
    0.0000    0.0000    0.0000 O   0  0  0  0  0  0  0  0  0  0  0  0
    0.0000    0.0000    0.0000 C   0  0  0  0  0  0  0  0  0  0  0  0
    0.0000    0.0000    0.0000 C   0  0  0  0  0  0  0  0  0  0  0  0
    0.0000    0.0000    0.0000 C   0  0  0  0  0  0  0  0  0  0  0  0
    0.0000    0.0000    0.0000 C   0  0  0  0  0  0  0  0  0  0  0  0
    0.0000    0.0000    0.0000 C   0  0  0  0  0  0  0  0  0  0  0  0
    0.0000    0.0000    0.0000 C   0  0  0  0  0  0  0  0  0  0  0  0
    0.0000    0.0000    0.0000 N   0  0  0  0  0  0  0  0  0  0  0  0
    0.0000    0.0000    0.0000 C   0  0  0  0  0  0  0  0  0  0  0  0
    0.0000    0.0000    0.0000 C   0  0  0  0  0  0  0  0  0  0  0  0
    0.0000    0.0000    0.0000 C   0  0  0  0  0  0  0  0  0  0  0  0
    0.0000    0.0000    0.0000 C   0  0  0  0  0  0  0  0  0  0  0  0
    0.0000    0.0000    0.0000 C   0  0  0  0  0  0  0  0  0  0  0  0
    0.0000    0.0000    0.0000 N   0  0  0  0  0  0  0  0  0  0  0  0
    0.0000    0.0000    0.0000 C   0  0  0  0  0  0  0  0  0  0  0  0
    0.0000    0.0000    0.0000 N   0  0  0  0  0  0  0  0  0  0  0  0
    0.0000    0.0000    0.0000 S   0  0  0  0  0  0  0  0  0  0  0  0
    0.0000    0.0000    0.0000 C   0  0  0  0  0  0  0  0  0  0  0  0
    0.0000    0.0000    0.0000 C   0  0  0  0  0  0  0  0  0  0  0  0
    0.0000    0.0000    0.0000 C   0  0  0  0  0  0  0  0  0  0  0  0
    0.0000    0.0000    0.0000 C   0  0  0  0  0  0  0  0  0  0  0  0
    0.0000    0.0000    0.0000 C   0  0  0  0  0  0  0  0  0  0  0  0
    0.0000    0.0000    0.0000 C   0  0  0  0  0  0  0  0  0  0  0  0
  1  2  1  0
  2  3  1  0
  3  4  2  0
  4  5  1  0
  5  6  2  0
  6  7  1  0
  7  8  1  0
  8  9  1  0
  9 10  1  0
 10 11  1  0
 11 12  1  0
 12 13  2  0
 13 14  1  0
 14 15  1  0
 15 16  2  0
 16 17  1  0
 16 18  1  0
 18 19  1  0
 19 20  1  0
 20 21  2  0
 21 22  1  0
 22 23  1  0
  7 24  2  0
 24  3  1  0
 23  9  1  0
 21 12  1  0
 19 14  2  0
M  END
>  <pIC50>  (378) 
6.05

>  <ChEMBL_ID>  (378) 
CHEMBL2326480

>  <document_journal>  (378) 
Bioorg. Med. Chem. Lett.

>  <bao_endpoint>  (378) 
BAO_0000190

>  <potential_duplicate>  (378) 
False

>  <uo_units>  (378) 
UO_0000065

>  <canonical_smiles>  (378) 
COc1cccc(CN2CCc3cc4nc(N)sc4cc3CC2)c1

>  <parent_molecule_chembl_id>  (378) 
CHEMBL2326480

>  <assay_type>  (378) 
F

>  <src_id>  (378) 
1

>  <ligand_efficiency>  (378) 
None

>  <standard_flag>  (378) 
True

>  <molecule_chembl_id>  (378) 
CHEMBL2326480

>  <target_organism>  (378) 
Homo sapiens

>  <standard_units>  (378) 
nM

>  <record_id>  (378) 
1852961

>  <document_chembl_id>  (378) 
CHEMBL2321835

>  <bao_format>  (378) 
BAO_0000219

>  <data_validity_description>  (378) 
None

>  <activity_id>  (378) 
12652689

>  <standard_type>  (378) 
IC50

>  <target_chembl_id>  (378) 
CHEMBL217

>  <data_validity_comment>  (378) 
None

>  <published_value>  (378) 
0.9

>  <document_year>  (378) 
2013

>  <target_pref_name>  (378) 
Dopamine D2 receptor

>  <assay_chembl_id>  (378) 
CHEMBL2328744

>  <standard_relation>  (378) 
=

>  <assay_description>  (378) 
Antagonist activity at human D2 dopamine receptor expressed in CHO cell membrane by GTPgammaS-binding assay

>  <published_relation>  (378) 
=

>  <standard_value>  (378) 
900

>  <qudt_units>  (378) 
http://www.openphacts.org/units/Nanomolar

>  <target_tax_id>  (378) 
9606

>  <bao_label>  (378) 
cell-based format

>  <published_units>  (378) 
uM

>  <pchembl_value>  (378) 
6.05

>  <published_type>  (378) 
IC50

>  <activity_comment>  (378) 
None

$$$$

     RDKit          

 24 27  0  0  0  0  0  0  0  0999 V2000
    0.0000    0.0000    0.0000 C   0  0  0  0  0  0  0  0  0  0  0  0
    0.0000    0.0000    0.0000 O   0  0  0  0  0  0  0  0  0  0  0  0
    0.0000    0.0000    0.0000 C   0  0  0  0  0  0  0  0  0  0  0  0
    0.0000    0.0000    0.0000 C   0  0  0  0  0  0  0  0  0  0  0  0
    0.0000    0.0000    0.0000 C   0  0  0  0  0  0  0  0  0  0  0  0
    0.0000    0.0000    0.0000 C   0  0  0  0  0  0  0  0  0  0  0  0
    0.0000    0.0000    0.0000 C   0  0  0  0  0  0  0  0  0  0  0  0
    0.0000    0.0000    0.0000 N   0  0  0  0  0  0  0  0  0  0  0  0
    0.0000    0.0000    0.0000 C   0  0  0  0  0  0  0  0  0  0  0  0
    0.0000    0.0000    0.0000 C   0  0  0  0  0  0  0  0  0  0  0  0
    0.0000    0.0000    0.0000 C   0  0  0  0  0  0  0  0  0  0  0  0
    0.0000    0.0000    0.0000 C   0  0  0  0  0  0  0  0  0  0  0  0
    0.0000    0.0000    0.0000 C   0  0  0  0  0  0  0  0  0  0  0  0
    0.0000    0.0000    0.0000 N   0  0  0  0  0  0  0  0  0  0  0  0
    0.0000    0.0000    0.0000 C   0  0  0  0  0  0  0  0  0  0  0  0
    0.0000    0.0000    0.0000 N   0  0  0  0  0  0  0  0  0  0  0  0
    0.0000    0.0000    0.0000 S   0  0  0  0  0  0  0  0  0  0  0  0
    0.0000    0.0000    0.0000 C   0  0  0  0  0  0  0  0  0  0  0  0
    0.0000    0.0000    0.0000 C   0  0  0  0  0  0  0  0  0  0  0  0
    0.0000    0.0000    0.0000 C   0  0  0  0  0  0  0  0  0  0  0  0
    0.0000    0.0000    0.0000 C   0  0  0  0  0  0  0  0  0  0  0  0
    0.0000    0.0000    0.0000 C   0  0  0  0  0  0  0  0  0  0  0  0
    0.0000    0.0000    0.0000 C   0  0  0  0  0  0  0  0  0  0  0  0
    0.0000    0.0000    0.0000 C   0  0  0  0  0  0  0  0  0  0  0  0
  1  2  1  0
  2  3  1  0
  3  4  2  0
  4  5  1  0
  5  6  2  0
  6  7  1  0
  7  8  1  0
  8  9  1  0
  9 10  1  0
 10 11  1  0
 11 12  2  0
 12 13  1  0
 13 14  1  0
 14 15  2  0
 15 16  1  0
 15 17  1  0
 17 18  1  0
 18 19  1  0
 19 20  2  0
 20 21  1  0
 21 22  1  0
  6 23  1  0
 23 24  2  0
 24  3  1  0
 22  8  1  0
 20 11  1  0
 18 13  2  0
M  END
>  <pIC50>  (379) 
6.4

>  <ChEMBL_ID>  (379) 
CHEMBL2326479

>  <document_journal>  (379) 
Bioorg. Med. Chem. Lett.

>  <bao_endpoint>  (379) 
BAO_0000190

>  <potential_duplicate>  (379) 
False

>  <uo_units>  (379) 
UO_0000065

>  <canonical_smiles>  (379) 
COc1ccc(CN2CCc3cc4nc(N)sc4cc3CC2)cc1

>  <parent_molecule_chembl_id>  (379) 
CHEMBL2326479

>  <assay_type>  (379) 
F

>  <src_id>  (379) 
1

>  <ligand_efficiency>  (379) 
None

>  <standard_flag>  (379) 
True

>  <molecule_chembl_id>  (379) 
CHEMBL2326479

>  <target_organism>  (379) 
Homo sapiens

>  <standard_units>  (379) 
nM

>  <record_id>  (379) 
1852960

>  <document_chembl_id>  (379) 
CHEMBL2321835

>  <bao_format>  (379) 
BAO_0000219

>  <data_validity_description>  (379) 
None

>  <activity_id>  (379) 
12652690

>  <standard_type>  (379) 
IC50

>  <target_chembl_id>  (379) 
CHEMBL217

>  <data_validity_comment>  (379) 
None

>  <published_value>  (379) 
0.4

>  <document_year>  (379) 
2013

>  <target_pref_name>  (379) 
Dopamine D2 receptor

>  <assay_chembl_id>  (379) 
CHEMBL2328744

>  <standard_relation>  (379) 
=

>  <assay_description>  (379) 
Antagonist activity at human D2 dopamine receptor expressed in CHO cell membrane by GTPgammaS-binding assay

>  <published_relation>  (379) 
=

>  <standard_value>  (379) 
400

>  <qudt_units>  (379) 
http://www.openphacts.org/units/Nanomolar

>  <target_tax_id>  (379) 
9606

>  <bao_label>  (379) 
cell-based format

>  <published_units>  (379) 
uM

>  <pchembl_value>  (379) 
6.4

>  <published_type>  (379) 
IC50

>  <activity_comment>  (379) 
None

$$$$

     RDKit          

 23 26  0  0  0  0  0  0  0  0999 V2000
    0.0000    0.0000    0.0000 N   0  0  0  0  0  0  0  0  0  0  0  0
    0.0000    0.0000    0.0000 C   0  0  0  0  0  0  0  0  0  0  0  0
    0.0000    0.0000    0.0000 N   0  0  0  0  0  0  0  0  0  0  0  0
    0.0000    0.0000    0.0000 C   0  0  0  0  0  0  0  0  0  0  0  0
    0.0000    0.0000    0.0000 C   0  0  0  0  0  0  0  0  0  0  0  0
    0.0000    0.0000    0.0000 C   0  0  0  0  0  0  0  0  0  0  0  0
    0.0000    0.0000    0.0000 C   0  0  0  0  0  0  0  0  0  0  0  0
    0.0000    0.0000    0.0000 C   0  0  0  0  0  0  0  0  0  0  0  0
    0.0000    0.0000    0.0000 N   0  0  0  0  0  0  0  0  0  0  0  0
    0.0000    0.0000    0.0000 C   0  0  0  0  0  0  0  0  0  0  0  0
    0.0000    0.0000    0.0000 C   0  0  0  0  0  0  0  0  0  0  0  0
    0.0000    0.0000    0.0000 C   0  0  0  0  0  0  0  0  0  0  0  0
    0.0000    0.0000    0.0000 C   0  0  0  0  0  0  0  0  0  0  0  0
    0.0000    0.0000    0.0000 C   0  0  0  0  0  0  0  0  0  0  0  0
    0.0000    0.0000    0.0000 C   0  0  0  0  0  0  0  0  0  0  0  0
    0.0000    0.0000    0.0000 F   0  0  0  0  0  0  0  0  0  0  0  0
    0.0000    0.0000    0.0000 C   0  0  0  0  0  0  0  0  0  0  0  0
    0.0000    0.0000    0.0000 C   0  0  0  0  0  0  0  0  0  0  0  0
    0.0000    0.0000    0.0000 C   0  0  0  0  0  0  0  0  0  0  0  0
    0.0000    0.0000    0.0000 C   0  0  0  0  0  0  0  0  0  0  0  0
    0.0000    0.0000    0.0000 C   0  0  0  0  0  0  0  0  0  0  0  0
    0.0000    0.0000    0.0000 C   0  0  0  0  0  0  0  0  0  0  0  0
    0.0000    0.0000    0.0000 S   0  0  0  0  0  0  0  0  0  0  0  0
  1  2  1  0
  2  3  2  0
  3  4  1  0
  4  5  2  0
  5  6  1  0
  6  7  1  0
  7  8  1  0
  8  9  1  0
  9 10  1  0
 10 11  1  0
 11 12  2  0
 12 13  1  0
 13 14  2  0
 14 15  1  0
 15 16  1  0
 15 17  2  0
  9 18  1  0
 18 19  1  0
 19 20  1  0
 20 21  1  0
 21 22  2  0
 22 23  1  0
 23  2  1  0
 22  4  1  0
 20  6  2  0
 17 11  1  0
M  END
>  <pIC50>  (380) 
6.4

>  <ChEMBL_ID>  (380) 
CHEMBL2326478

>  <document_journal>  (380) 
Bioorg. Med. Chem. Lett.

>  <bao_endpoint>  (380) 
BAO_0000190

>  <potential_duplicate>  (380) 
False

>  <uo_units>  (380) 
UO_0000065

>  <canonical_smiles>  (380) 
Nc1nc2cc3CCN(Cc4cccc(F)c4)CCc3cc2s1

>  <parent_molecule_chembl_id>  (380) 
CHEMBL2326478

>  <assay_type>  (380) 
F

>  <src_id>  (380) 
1

>  <ligand_efficiency>  (380) 
None

>  <standard_flag>  (380) 
True

>  <molecule_chembl_id>  (380) 
CHEMBL2326478

>  <target_organism>  (380) 
Homo sapiens

>  <standard_units>  (380) 
nM

>  <record_id>  (380) 
1852959

>  <document_chembl_id>  (380) 
CHEMBL2321835

>  <bao_format>  (380) 
BAO_0000219

>  <data_validity_description>  (380) 
None

>  <activity_id>  (380) 
12652691

>  <standard_type>  (380) 
IC50

>  <target_chembl_id>  (380) 
CHEMBL217

>  <data_validity_comment>  (380) 
None

>  <published_value>  (380) 
0.4

>  <document_year>  (380) 
2013

>  <target_pref_name>  (380) 
Dopamine D2 receptor

>  <assay_chembl_id>  (380) 
CHEMBL2328744

>  <standard_relation>  (380) 
=

>  <assay_description>  (380) 
Antagonist activity at human D2 dopamine receptor expressed in CHO cell membrane by GTPgammaS-binding assay

>  <published_relation>  (380) 
=

>  <standard_value>  (380) 
400

>  <qudt_units>  (380) 
http://www.openphacts.org/units/Nanomolar

>  <target_tax_id>  (380) 
9606

>  <bao_label>  (380) 
cell-based format

>  <published_units>  (380) 
uM

>  <pchembl_value>  (380) 
6.4

>  <published_type>  (380) 
IC50

>  <activity_comment>  (380) 
None

$$$$

     RDKit          

 23 26  0  0  0  0  0  0  0  0999 V2000
    0.0000    0.0000    0.0000 N   0  0  0  0  0  0  0  0  0  0  0  0
    0.0000    0.0000    0.0000 C   0  0  0  0  0  0  0  0  0  0  0  0
    0.0000    0.0000    0.0000 N   0  0  0  0  0  0  0  0  0  0  0  0
    0.0000    0.0000    0.0000 C   0  0  0  0  0  0  0  0  0  0  0  0
    0.0000    0.0000    0.0000 C   0  0  0  0  0  0  0  0  0  0  0  0
    0.0000    0.0000    0.0000 C   0  0  0  0  0  0  0  0  0  0  0  0
    0.0000    0.0000    0.0000 C   0  0  0  0  0  0  0  0  0  0  0  0
    0.0000    0.0000    0.0000 C   0  0  0  0  0  0  0  0  0  0  0  0
    0.0000    0.0000    0.0000 N   0  0  0  0  0  0  0  0  0  0  0  0
    0.0000    0.0000    0.0000 C   0  0  0  0  0  0  0  0  0  0  0  0
    0.0000    0.0000    0.0000 C   0  0  0  0  0  0  0  0  0  0  0  0
    0.0000    0.0000    0.0000 C   0  0  0  0  0  0  0  0  0  0  0  0
    0.0000    0.0000    0.0000 C   0  0  0  0  0  0  0  0  0  0  0  0
    0.0000    0.0000    0.0000 C   0  0  0  0  0  0  0  0  0  0  0  0
    0.0000    0.0000    0.0000 F   0  0  0  0  0  0  0  0  0  0  0  0
    0.0000    0.0000    0.0000 C   0  0  0  0  0  0  0  0  0  0  0  0
    0.0000    0.0000    0.0000 C   0  0  0  0  0  0  0  0  0  0  0  0
    0.0000    0.0000    0.0000 C   0  0  0  0  0  0  0  0  0  0  0  0
    0.0000    0.0000    0.0000 C   0  0  0  0  0  0  0  0  0  0  0  0
    0.0000    0.0000    0.0000 C   0  0  0  0  0  0  0  0  0  0  0  0
    0.0000    0.0000    0.0000 C   0  0  0  0  0  0  0  0  0  0  0  0
    0.0000    0.0000    0.0000 C   0  0  0  0  0  0  0  0  0  0  0  0
    0.0000    0.0000    0.0000 S   0  0  0  0  0  0  0  0  0  0  0  0
  1  2  1  0
  2  3  2  0
  3  4  1  0
  4  5  2  0
  5  6  1  0
  6  7  1  0
  7  8  1  0
  8  9  1  0
  9 10  1  0
 10 11  1  0
 11 12  2  0
 12 13  1  0
 13 14  2  0
 14 15  1  0
 14 16  1  0
 16 17  2  0
  9 18  1  0
 18 19  1  0
 19 20  1  0
 20 21  1  0
 21 22  2  0
 22 23  1  0
 23  2  1  0
 22  4  1  0
 20  6  2  0
 17 11  1  0
M  END
>  <pIC50>  (381) 
6.22

>  <ChEMBL_ID>  (381) 
CHEMBL2326477

>  <document_journal>  (381) 
Bioorg. Med. Chem. Lett.

>  <bao_endpoint>  (381) 
BAO_0000190

>  <potential_duplicate>  (381) 
False

>  <uo_units>  (381) 
UO_0000065

>  <canonical_smiles>  (381) 
Nc1nc2cc3CCN(Cc4ccc(F)cc4)CCc3cc2s1

>  <parent_molecule_chembl_id>  (381) 
CHEMBL2326477

>  <assay_type>  (381) 
F

>  <src_id>  (381) 
1

>  <ligand_efficiency>  (381) 
None

>  <standard_flag>  (381) 
True

>  <molecule_chembl_id>  (381) 
CHEMBL2326477

>  <target_organism>  (381) 
Homo sapiens

>  <standard_units>  (381) 
nM

>  <record_id>  (381) 
1852958

>  <document_chembl_id>  (381) 
CHEMBL2321835

>  <bao_format>  (381) 
BAO_0000219

>  <data_validity_description>  (381) 
None

>  <activity_id>  (381) 
12652692

>  <standard_type>  (381) 
IC50

>  <target_chembl_id>  (381) 
CHEMBL217

>  <data_validity_comment>  (381) 
None

>  <published_value>  (381) 
0.6

>  <document_year>  (381) 
2013

>  <target_pref_name>  (381) 
Dopamine D2 receptor

>  <assay_chembl_id>  (381) 
CHEMBL2328744

>  <standard_relation>  (381) 
=

>  <assay_description>  (381) 
Antagonist activity at human D2 dopamine receptor expressed in CHO cell membrane by GTPgammaS-binding assay

>  <published_relation>  (381) 
=

>  <standard_value>  (381) 
600

>  <qudt_units>  (381) 
http://www.openphacts.org/units/Nanomolar

>  <target_tax_id>  (381) 
9606

>  <bao_label>  (381) 
cell-based format

>  <published_units>  (381) 
uM

>  <pchembl_value>  (381) 
6.22

>  <published_type>  (381) 
IC50

>  <activity_comment>  (381) 
None

$$$$

     RDKit          

 22 25  0  0  0  0  0  0  0  0999 V2000
    0.0000    0.0000    0.0000 N   0  0  0  0  0  0  0  0  0  0  0  0
    0.0000    0.0000    0.0000 C   0  0  0  0  0  0  0  0  0  0  0  0
    0.0000    0.0000    0.0000 N   0  0  0  0  0  0  0  0  0  0  0  0
    0.0000    0.0000    0.0000 C   0  0  0  0  0  0  0  0  0  0  0  0
    0.0000    0.0000    0.0000 C   0  0  0  0  0  0  0  0  0  0  0  0
    0.0000    0.0000    0.0000 C   0  0  0  0  0  0  0  0  0  0  0  0
    0.0000    0.0000    0.0000 C   0  0  0  0  0  0  0  0  0  0  0  0
    0.0000    0.0000    0.0000 C   0  0  0  0  0  0  0  0  0  0  0  0
    0.0000    0.0000    0.0000 N   0  0  0  0  0  0  0  0  0  0  0  0
    0.0000    0.0000    0.0000 C   0  0  0  0  0  0  0  0  0  0  0  0
    0.0000    0.0000    0.0000 C   0  0  0  0  0  0  0  0  0  0  0  0
    0.0000    0.0000    0.0000 C   0  0  0  0  0  0  0  0  0  0  0  0
    0.0000    0.0000    0.0000 C   0  0  0  0  0  0  0  0  0  0  0  0
    0.0000    0.0000    0.0000 C   0  0  0  0  0  0  0  0  0  0  0  0
    0.0000    0.0000    0.0000 C   0  0  0  0  0  0  0  0  0  0  0  0
    0.0000    0.0000    0.0000 C   0  0  0  0  0  0  0  0  0  0  0  0
    0.0000    0.0000    0.0000 C   0  0  0  0  0  0  0  0  0  0  0  0
    0.0000    0.0000    0.0000 C   0  0  0  0  0  0  0  0  0  0  0  0
    0.0000    0.0000    0.0000 C   0  0  0  0  0  0  0  0  0  0  0  0
    0.0000    0.0000    0.0000 C   0  0  0  0  0  0  0  0  0  0  0  0
    0.0000    0.0000    0.0000 C   0  0  0  0  0  0  0  0  0  0  0  0
    0.0000    0.0000    0.0000 S   0  0  0  0  0  0  0  0  0  0  0  0
  1  2  1  0
  2  3  2  0
  3  4  1  0
  4  5  2  0
  5  6  1  0
  6  7  1  0
  7  8  1  0
  8  9  1  0
  9 10  1  0
 10 11  1  0
 11 12  2  0
 12 13  1  0
 13 14  2  0
 14 15  1  0
 15 16  2  0
  9 17  1  0
 17 18  1  0
 18 19  1  0
 19 20  1  0
 20 21  2  0
 21 22  1  0
 22  2  1  0
 21  4  1  0
 19  6  2  0
 16 11  1  0
M  END
>  <pIC50>  (382) 
5.54

>  <ChEMBL_ID>  (382) 
CHEMBL2326476

>  <document_journal>  (382) 
Bioorg. Med. Chem. Lett.

>  <bao_endpoint>  (382) 
BAO_0000190

>  <potential_duplicate>  (382) 
False

>  <uo_units>  (382) 
UO_0000065

>  <canonical_smiles>  (382) 
Nc1nc2cc3CCN(Cc4ccccc4)CCc3cc2s1

>  <parent_molecule_chembl_id>  (382) 
CHEMBL2326476

>  <assay_type>  (382) 
F

>  <src_id>  (382) 
1

>  <ligand_efficiency>  (382) 
None

>  <standard_flag>  (382) 
True

>  <molecule_chembl_id>  (382) 
CHEMBL2326476

>  <target_organism>  (382) 
Homo sapiens

>  <standard_units>  (382) 
nM

>  <record_id>  (382) 
1852957

>  <document_chembl_id>  (382) 
CHEMBL2321835

>  <bao_format>  (382) 
BAO_0000219

>  <data_validity_description>  (382) 
None

>  <activity_id>  (382) 
12652693

>  <standard_type>  (382) 
IC50

>  <target_chembl_id>  (382) 
CHEMBL217

>  <data_validity_comment>  (382) 
None

>  <published_value>  (382) 
2.9

>  <document_year>  (382) 
2013

>  <target_pref_name>  (382) 
Dopamine D2 receptor

>  <assay_chembl_id>  (382) 
CHEMBL2328744

>  <standard_relation>  (382) 
=

>  <assay_description>  (382) 
Antagonist activity at human D2 dopamine receptor expressed in CHO cell membrane by GTPgammaS-binding assay

>  <published_relation>  (382) 
=

>  <standard_value>  (382) 
2900

>  <qudt_units>  (382) 
http://www.openphacts.org/units/Nanomolar

>  <target_tax_id>  (382) 
9606

>  <bao_label>  (382) 
cell-based format

>  <published_units>  (382) 
uM

>  <pchembl_value>  (382) 
5.54

>  <published_type>  (382) 
IC50

>  <activity_comment>  (382) 
None

$$$$

     RDKit          

 23 26  0  0  0  0  0  0  0  0999 V2000
    0.0000    0.0000    0.0000 N   0  0  0  0  0  0  0  0  0  0  0  0
    0.0000    0.0000    0.0000 C   0  0  0  0  0  0  0  0  0  0  0  0
    0.0000    0.0000    0.0000 N   0  0  0  0  0  0  0  0  0  0  0  0
    0.0000    0.0000    0.0000 C   0  0  0  0  0  0  0  0  0  0  0  0
    0.0000    0.0000    0.0000 C   0  0  0  0  0  0  0  0  0  0  0  0
    0.0000    0.0000    0.0000 C   0  0  0  0  0  0  0  0  0  0  0  0
    0.0000    0.0000    0.0000 C   0  0  0  0  0  0  0  0  0  0  0  0
    0.0000    0.0000    0.0000 C   0  0  0  0  0  0  0  0  0  0  0  0
    0.0000    0.0000    0.0000 N   0  0  0  0  0  0  0  0  0  0  0  0
    0.0000    0.0000    0.0000 C   0  0  0  0  0  0  0  0  0  0  0  0
    0.0000    0.0000    0.0000 C   0  0  0  0  0  0  0  0  0  0  0  0
    0.0000    0.0000    0.0000 C   0  0  0  0  0  0  0  0  0  0  0  0
    0.0000    0.0000    0.0000 C   0  0  0  0  0  0  0  0  0  0  0  0
    0.0000    0.0000    0.0000 C   0  0  0  0  0  0  0  0  0  0  0  0
    0.0000    0.0000    0.0000 S   0  0  0  0  0  0  0  0  0  0  0  0
    0.0000    0.0000    0.0000 C   0  0  0  0  0  0  0  0  0  0  0  0
    0.0000    0.0000    0.0000 O   0  0  0  0  0  0  0  0  0  0  0  0
    0.0000    0.0000    0.0000 C   0  0  0  0  0  0  0  0  0  0  0  0
    0.0000    0.0000    0.0000 C   0  0  0  0  0  0  0  0  0  0  0  0
    0.0000    0.0000    0.0000 C   0  0  0  0  0  0  0  0  0  0  0  0
    0.0000    0.0000    0.0000 C   0  0  0  0  0  0  0  0  0  0  0  0
    0.0000    0.0000    0.0000 C   0  0  0  0  0  0  0  0  0  0  0  0
    0.0000    0.0000    0.0000 C   0  0  0  0  0  0  0  0  0  0  0  0
  1  2  1  0
  2  3  2  0
  3  4  1  0
  4  5  2  0
  5  6  1  0
  6  7  1  0
  7  8  1  0
  8  9  1  0
  9 10  1  0
 10 11  1  0
 11 12  1  0
 12 13  1  0
 13 14  2  0
 14 15  1  0
  9 16  1  0
 16 17  2  0
 16 18  1  0
 18 19  2  0
 19 20  1  0
 20 21  2  0
 21 22  1  0
 22 23  2  0
 15  2  1  0
 14  4  1  0
 12  6  2  0
 23 18  1  0
M  END
>  <pIC50>  (383) 
5.0

>  <ChEMBL_ID>  (383) 
CHEMBL2326475

>  <document_journal>  (383) 
Bioorg. Med. Chem. Lett.

>  <bao_endpoint>  (383) 
BAO_0000190

>  <potential_duplicate>  (383) 
False

>  <uo_units>  (383) 
UO_0000065

>  <canonical_smiles>  (383) 
Nc1nc2cc3CCN(CCc3cc2s1)C(=O)c4ccccc4

>  <parent_molecule_chembl_id>  (383) 
CHEMBL2326475

>  <assay_type>  (383) 
F

>  <src_id>  (383) 
1

>  <ligand_efficiency>  (383) 
None

>  <standard_flag>  (383) 
True

>  <molecule_chembl_id>  (383) 
CHEMBL2326475

>  <target_organism>  (383) 
Homo sapiens

>  <standard_units>  (383) 
nM

>  <record_id>  (383) 
1852956

>  <document_chembl_id>  (383) 
CHEMBL2321835

>  <bao_format>  (383) 
BAO_0000219

>  <data_validity_description>  (383) 
None

>  <activity_id>  (383) 
12652694

>  <standard_type>  (383) 
IC50

>  <target_chembl_id>  (383) 
CHEMBL217

>  <data_validity_comment>  (383) 
None

>  <published_value>  (383) 
10

>  <document_year>  (383) 
2013

>  <target_pref_name>  (383) 
Dopamine D2 receptor

>  <assay_chembl_id>  (383) 
CHEMBL2328744

>  <standard_relation>  (383) 
=

>  <assay_description>  (383) 
Antagonist activity at human D2 dopamine receptor expressed in CHO cell membrane by GTPgammaS-binding assay

>  <published_relation>  (383) 
=

>  <standard_value>  (383) 
10000

>  <qudt_units>  (383) 
http://www.openphacts.org/units/Nanomolar

>  <target_tax_id>  (383) 
9606

>  <bao_label>  (383) 
cell-based format

>  <published_units>  (383) 
uM

>  <pchembl_value>  (383) 
5

>  <published_type>  (383) 
IC50

>  <activity_comment>  (383) 
None

$$$$

     RDKit          

 18 20  0  0  0  0  0  0  0  0999 V2000
    0.0000    0.0000    0.0000 N   0  0  0  0  0  0  0  0  0  0  0  0
    0.0000    0.0000    0.0000 C   0  0  0  0  0  0  0  0  0  0  0  0
    0.0000    0.0000    0.0000 N   0  0  0  0  0  0  0  0  0  0  0  0
    0.0000    0.0000    0.0000 C   0  0  0  0  0  0  0  0  0  0  0  0
    0.0000    0.0000    0.0000 C   0  0  0  0  0  0  0  0  0  0  0  0
    0.0000    0.0000    0.0000 C   0  0  0  0  0  0  0  0  0  0  0  0
    0.0000    0.0000    0.0000 C   0  0  0  0  0  0  0  0  0  0  0  0
    0.0000    0.0000    0.0000 C   0  0  0  0  0  0  0  0  0  0  0  0
    0.0000    0.0000    0.0000 N   0  0  0  0  0  0  0  0  0  0  0  0
    0.0000    0.0000    0.0000 C   0  0  0  0  0  0  0  0  0  0  0  0
    0.0000    0.0000    0.0000 C   0  0  0  0  0  0  0  0  0  0  0  0
    0.0000    0.0000    0.0000 O   0  0  0  0  0  0  0  0  0  0  0  0
    0.0000    0.0000    0.0000 C   0  0  0  0  0  0  0  0  0  0  0  0
    0.0000    0.0000    0.0000 C   0  0  0  0  0  0  0  0  0  0  0  0
    0.0000    0.0000    0.0000 C   0  0  0  0  0  0  0  0  0  0  0  0
    0.0000    0.0000    0.0000 C   0  0  0  0  0  0  0  0  0  0  0  0
    0.0000    0.0000    0.0000 C   0  0  0  0  0  0  0  0  0  0  0  0
    0.0000    0.0000    0.0000 S   0  0  0  0  0  0  0  0  0  0  0  0
  1  2  1  0
  2  3  2  0
  3  4  1  0
  4  5  2  0
  5  6  1  0
  6  7  1  0
  7  8  1  0
  8  9  1  0
  9 10  1  0
 10 11  1  0
 11 12  1  0
  9 13  1  0
 13 14  1  0
 14 15  1  0
 15 16  1  0
 16 17  2  0
 17 18  1  0
 18  2  1  0
 17  4  1  0
 15  6  2  0
M  END
>  <pIC50>  (384) 
5.0

>  <ChEMBL_ID>  (384) 
CHEMBL2326474

>  <document_journal>  (384) 
Bioorg. Med. Chem. Lett.

>  <bao_endpoint>  (384) 
BAO_0000190

>  <potential_duplicate>  (384) 
False

>  <uo_units>  (384) 
UO_0000065

>  <canonical_smiles>  (384) 
Nc1nc2cc3CCN(CCO)CCc3cc2s1

>  <parent_molecule_chembl_id>  (384) 
CHEMBL2326474

>  <assay_type>  (384) 
F

>  <src_id>  (384) 
1

>  <ligand_efficiency>  (384) 
None

>  <standard_flag>  (384) 
True

>  <molecule_chembl_id>  (384) 
CHEMBL2326474

>  <target_organism>  (384) 
Homo sapiens

>  <standard_units>  (384) 
nM

>  <record_id>  (384) 
1852955

>  <document_chembl_id>  (384) 
CHEMBL2321835

>  <bao_format>  (384) 
BAO_0000219

>  <data_validity_description>  (384) 
None

>  <activity_id>  (384) 
12652695

>  <standard_type>  (384) 
IC50

>  <target_chembl_id>  (384) 
CHEMBL217

>  <data_validity_comment>  (384) 
None

>  <published_value>  (384) 
10

>  <document_year>  (384) 
2013

>  <target_pref_name>  (384) 
Dopamine D2 receptor

>  <assay_chembl_id>  (384) 
CHEMBL2328744

>  <standard_relation>  (384) 
=

>  <assay_description>  (384) 
Antagonist activity at human D2 dopamine receptor expressed in CHO cell membrane by GTPgammaS-binding assay

>  <published_relation>  (384) 
=

>  <standard_value>  (384) 
10000

>  <qudt_units>  (384) 
http://www.openphacts.org/units/Nanomolar

>  <target_tax_id>  (384) 
9606

>  <bao_label>  (384) 
cell-based format

>  <published_units>  (384) 
uM

>  <pchembl_value>  (384) 
5

>  <published_type>  (384) 
IC50

>  <activity_comment>  (384) 
None

$$$$

     RDKit          

 21 23  0  0  0  0  0  0  0  0999 V2000
    0.0000    0.0000    0.0000 C   0  0  0  0  0  0  0  0  0  0  0  0
    0.0000    0.0000    0.0000 N   0  0  0  0  0  0  0  0  0  0  0  0
    0.0000    0.0000    0.0000 C   0  0  0  0  0  0  0  0  0  0  0  0
    0.0000    0.0000    0.0000 C   0  0  0  0  0  0  0  0  0  0  0  0
    0.0000    0.0000    0.0000 O   0  0  0  0  0  0  0  0  0  0  0  0
    0.0000    0.0000    0.0000 C   0  0  0  0  0  0  0  0  0  0  0  0
    0.0000    0.0000    0.0000 N   0  0  0  0  0  0  0  0  0  0  0  0
    0.0000    0.0000    0.0000 C   0  0  0  0  0  0  0  0  0  0  0  0
    0.0000    0.0000    0.0000 C   0  0  0  0  0  0  0  0  0  0  0  0
    0.0000    0.0000    0.0000 C   0  0  0  0  0  0  0  0  0  0  0  0
    0.0000    0.0000    0.0000 C   0  0  0  0  0  0  0  0  0  0  0  0
    0.0000    0.0000    0.0000 C   0  0  0  0  0  0  0  0  0  0  0  0
    0.0000    0.0000    0.0000 N   0  0  0  0  0  0  0  0  0  0  0  0
    0.0000    0.0000    0.0000 C   0  0  0  0  0  0  0  0  0  0  0  0
    0.0000    0.0000    0.0000 N   0  0  0  0  0  0  0  0  0  0  0  0
    0.0000    0.0000    0.0000 S   0  0  0  0  0  0  0  0  0  0  0  0
    0.0000    0.0000    0.0000 C   0  0  0  0  0  0  0  0  0  0  0  0
    0.0000    0.0000    0.0000 C   0  0  0  0  0  0  0  0  0  0  0  0
    0.0000    0.0000    0.0000 C   0  0  0  0  0  0  0  0  0  0  0  0
    0.0000    0.0000    0.0000 C   0  0  0  0  0  0  0  0  0  0  0  0
    0.0000    0.0000    0.0000 C   0  0  0  0  0  0  0  0  0  0  0  0
  1  2  1  0
  2  3  1  0
  2  4  1  0
  4  5  2  0
  4  6  1  0
  6  7  1  0
  7  8  1  0
  8  9  1  0
  9 10  1  0
 10 11  2  0
 11 12  1  0
 12 13  1  0
 13 14  2  0
 14 15  1  0
 14 16  1  0
 16 17  1  0
 17 18  1  0
 18 19  2  0
 19 20  1  0
 20 21  1  0
 21  7  1  0
 19 10  1  0
 17 12  2  0
M  END
>  <pIC50>  (385) 
5.11

>  <ChEMBL_ID>  (385) 
CHEMBL2326492

>  <document_journal>  (385) 
Bioorg. Med. Chem. Lett.

>  <bao_endpoint>  (385) 
BAO_0000190

>  <potential_duplicate>  (385) 
False

>  <uo_units>  (385) 
UO_0000065

>  <canonical_smiles>  (385) 
CN(C)C(=O)CN1CCc2cc3nc(N)sc3cc2CC1

>  <parent_molecule_chembl_id>  (385) 
CHEMBL2326492

>  <assay_type>  (385) 
F

>  <src_id>  (385) 
1

>  <ligand_efficiency>  (385) 
None

>  <standard_flag>  (385) 
True

>  <molecule_chembl_id>  (385) 
CHEMBL2326492

>  <target_organism>  (385) 
Homo sapiens

>  <standard_units>  (385) 
nM

>  <record_id>  (385) 
1852976

>  <document_chembl_id>  (385) 
CHEMBL2321835

>  <bao_format>  (385) 
BAO_0000219

>  <data_validity_description>  (385) 
None

>  <activity_id>  (385) 
12652696

>  <standard_type>  (385) 
IC50

>  <target_chembl_id>  (385) 
CHEMBL217

>  <data_validity_comment>  (385) 
None

>  <published_value>  (385) 
7.8

>  <document_year>  (385) 
2013

>  <target_pref_name>  (385) 
Dopamine D2 receptor

>  <assay_chembl_id>  (385) 
CHEMBL2328744

>  <standard_relation>  (385) 
=

>  <assay_description>  (385) 
Antagonist activity at human D2 dopamine receptor expressed in CHO cell membrane by GTPgammaS-binding assay

>  <published_relation>  (385) 
=

>  <standard_value>  (385) 
7800

>  <qudt_units>  (385) 
http://www.openphacts.org/units/Nanomolar

>  <target_tax_id>  (385) 
9606

>  <bao_label>  (385) 
cell-based format

>  <published_units>  (385) 
uM

>  <pchembl_value>  (385) 
5.11

>  <published_type>  (385) 
IC50

>  <activity_comment>  (385) 
None

$$$$

     RDKit          

 20 22  0  0  0  0  0  0  0  0999 V2000
    0.0000    0.0000    0.0000 N   0  0  0  0  0  0  0  0  0  0  0  0
    0.0000    0.0000    0.0000 C   0  0  0  0  0  0  0  0  0  0  0  0
    0.0000    0.0000    0.0000 N   0  0  0  0  0  0  0  0  0  0  0  0
    0.0000    0.0000    0.0000 C   0  0  0  0  0  0  0  0  0  0  0  0
    0.0000    0.0000    0.0000 C   0  0  0  0  0  0  0  0  0  0  0  0
    0.0000    0.0000    0.0000 C   0  0  0  0  0  0  0  0  0  0  0  0
    0.0000    0.0000    0.0000 C   0  0  0  0  0  0  0  0  0  0  0  0
    0.0000    0.0000    0.0000 C   0  0  0  0  0  0  0  0  0  0  0  0
    0.0000    0.0000    0.0000 N   0  0  0  0  0  0  0  0  0  0  0  0
    0.0000    0.0000    0.0000 C   0  0  0  0  0  0  0  0  0  0  0  0
    0.0000    0.0000    0.0000 C   0  0  0  0  0  0  0  0  0  0  0  0
    0.0000    0.0000    0.0000 F   0  0  0  0  0  0  0  0  0  0  0  0
    0.0000    0.0000    0.0000 F   0  0  0  0  0  0  0  0  0  0  0  0
    0.0000    0.0000    0.0000 F   0  0  0  0  0  0  0  0  0  0  0  0
    0.0000    0.0000    0.0000 C   0  0  0  0  0  0  0  0  0  0  0  0
    0.0000    0.0000    0.0000 C   0  0  0  0  0  0  0  0  0  0  0  0
    0.0000    0.0000    0.0000 C   0  0  0  0  0  0  0  0  0  0  0  0
    0.0000    0.0000    0.0000 C   0  0  0  0  0  0  0  0  0  0  0  0
    0.0000    0.0000    0.0000 C   0  0  0  0  0  0  0  0  0  0  0  0
    0.0000    0.0000    0.0000 S   0  0  0  0  0  0  0  0  0  0  0  0
  1  2  1  0
  2  3  2  0
  3  4  1  0
  4  5  2  0
  5  6  1  0
  6  7  1  0
  7  8  1  0
  8  9  1  0
  9 10  1  0
 10 11  1  0
 11 12  1  0
 11 13  1  0
 11 14  1  0
  9 15  1  0
 15 16  1  0
 16 17  1  0
 17 18  1  0
 18 19  2  0
 19 20  1  0
 20  2  1  0
 19  4  1  0
 17  6  2  0
M  END
>  <pIC50>  (386) 
4.52

>  <ChEMBL_ID>  (386) 
CHEMBL2326491

>  <document_journal>  (386) 
Bioorg. Med. Chem. Lett.

>  <bao_endpoint>  (386) 
BAO_0000190

>  <potential_duplicate>  (386) 
False

>  <uo_units>  (386) 
UO_0000065

>  <canonical_smiles>  (386) 
Nc1nc2cc3CCN(CC(F)(F)F)CCc3cc2s1

>  <parent_molecule_chembl_id>  (386) 
CHEMBL2326491

>  <assay_type>  (386) 
F

>  <src_id>  (386) 
1

>  <ligand_efficiency>  (386) 
None

>  <standard_flag>  (386) 
True

>  <molecule_chembl_id>  (386) 
CHEMBL2326491

>  <target_organism>  (386) 
Homo sapiens

>  <standard_units>  (386) 
nM

>  <record_id>  (386) 
1852975

>  <document_chembl_id>  (386) 
CHEMBL2321835

>  <bao_format>  (386) 
BAO_0000219

>  <data_validity_description>  (386) 
None

>  <activity_id>  (386) 
12652697

>  <standard_type>  (386) 
IC50

>  <target_chembl_id>  (386) 
CHEMBL217

>  <data_validity_comment>  (386) 
None

>  <published_value>  (386) 
30

>  <document_year>  (386) 
2013

>  <target_pref_name>  (386) 
Dopamine D2 receptor

>  <assay_chembl_id>  (386) 
CHEMBL2328744

>  <standard_relation>  (386) 
=

>  <assay_description>  (386) 
Antagonist activity at human D2 dopamine receptor expressed in CHO cell membrane by GTPgammaS-binding assay

>  <published_relation>  (386) 
=

>  <standard_value>  (386) 
30000

>  <qudt_units>  (386) 
http://www.openphacts.org/units/Nanomolar

>  <target_tax_id>  (386) 
9606

>  <bao_label>  (386) 
cell-based format

>  <published_units>  (386) 
uM

>  <pchembl_value>  (386) 
4.52

>  <published_type>  (386) 
IC50

>  <activity_comment>  (386) 
None

$$$$

     RDKit          

 18 21  0  0  0  0  0  0  0  0999 V2000
    0.0000    0.0000    0.0000 N   0  0  0  0  0  0  0  0  0  0  0  0
    0.0000    0.0000    0.0000 C   0  0  0  0  0  0  0  0  0  0  0  0
    0.0000    0.0000    0.0000 N   0  0  0  0  0  0  0  0  0  0  0  0
    0.0000    0.0000    0.0000 C   0  0  0  0  0  0  0  0  0  0  0  0
    0.0000    0.0000    0.0000 C   0  0  0  0  0  0  0  0  0  0  0  0
    0.0000    0.0000    0.0000 C   0  0  0  0  0  0  0  0  0  0  0  0
    0.0000    0.0000    0.0000 C   0  0  0  0  0  0  0  0  0  0  0  0
    0.0000    0.0000    0.0000 C   0  0  0  0  0  0  0  0  0  0  0  0
    0.0000    0.0000    0.0000 N   0  0  0  0  0  0  0  0  0  0  0  0
    0.0000    0.0000    0.0000 C   0  0  0  0  0  0  0  0  0  0  0  0
    0.0000    0.0000    0.0000 C   0  0  0  0  0  0  0  0  0  0  0  0
    0.0000    0.0000    0.0000 C   0  0  0  0  0  0  0  0  0  0  0  0
    0.0000    0.0000    0.0000 C   0  0  0  0  0  0  0  0  0  0  0  0
    0.0000    0.0000    0.0000 C   0  0  0  0  0  0  0  0  0  0  0  0
    0.0000    0.0000    0.0000 S   0  0  0  0  0  0  0  0  0  0  0  0
    0.0000    0.0000    0.0000 C   0  0  0  0  0  0  0  0  0  0  0  0
    0.0000    0.0000    0.0000 C   0  0  0  0  0  0  0  0  0  0  0  0
    0.0000    0.0000    0.0000 C   0  0  0  0  0  0  0  0  0  0  0  0
  1  2  1  0
  2  3  2  0
  3  4  1  0
  4  5  2  0
  5  6  1  0
  6  7  1  0
  7  8  1  0
  8  9  1  0
  9 10  1  0
 10 11  1  0
 11 12  1  0
 12 13  1  0
 13 14  2  0
 14 15  1  0
  9 16  1  0
 16 17  1  0
 17 18  1  0
 15  2  1  0
 14  4  1  0
 12  6  2  0
 18 16  1  0
M  END
>  <pIC50>  (387) 
5.35

>  <ChEMBL_ID>  (387) 
CHEMBL2326490

>  <document_journal>  (387) 
Bioorg. Med. Chem. Lett.

>  <bao_endpoint>  (387) 
BAO_0000190

>  <potential_duplicate>  (387) 
False

>  <uo_units>  (387) 
UO_0000065

>  <canonical_smiles>  (387) 
Nc1nc2cc3CCN(CCc3cc2s1)C4CC4

>  <parent_molecule_chembl_id>  (387) 
CHEMBL2326490

>  <assay_type>  (387) 
F

>  <src_id>  (387) 
1

>  <ligand_efficiency>  (387) 
None

>  <standard_flag>  (387) 
True

>  <molecule_chembl_id>  (387) 
CHEMBL2326490

>  <target_organism>  (387) 
Homo sapiens

>  <standard_units>  (387) 
nM

>  <record_id>  (387) 
1852974

>  <document_chembl_id>  (387) 
CHEMBL2321835

>  <bao_format>  (387) 
BAO_0000219

>  <data_validity_description>  (387) 
None

>  <activity_id>  (387) 
12652698

>  <standard_type>  (387) 
IC50

>  <target_chembl_id>  (387) 
CHEMBL217

>  <data_validity_comment>  (387) 
None

>  <published_value>  (387) 
4.5

>  <document_year>  (387) 
2013

>  <target_pref_name>  (387) 
Dopamine D2 receptor

>  <assay_chembl_id>  (387) 
CHEMBL2328744

>  <standard_relation>  (387) 
=

>  <assay_description>  (387) 
Antagonist activity at human D2 dopamine receptor expressed in CHO cell membrane by GTPgammaS-binding assay

>  <published_relation>  (387) 
=

>  <standard_value>  (387) 
4500

>  <qudt_units>  (387) 
http://www.openphacts.org/units/Nanomolar

>  <target_tax_id>  (387) 
9606

>  <bao_label>  (387) 
cell-based format

>  <published_units>  (387) 
uM

>  <pchembl_value>  (387) 
5.35

>  <published_type>  (387) 
IC50

>  <activity_comment>  (387) 
None

$$$$

     RDKit          

 17 19  0  0  0  0  0  0  0  0999 V2000
    0.0000    0.0000    0.0000 C   0  0  0  0  0  0  0  0  0  0  0  0
    0.0000    0.0000    0.0000 C   0  0  0  0  0  0  0  0  0  0  0  0
    0.0000    0.0000    0.0000 N   0  0  0  0  0  0  0  0  0  0  0  0
    0.0000    0.0000    0.0000 C   0  0  0  0  0  0  0  0  0  0  0  0
    0.0000    0.0000    0.0000 C   0  0  0  0  0  0  0  0  0  0  0  0
    0.0000    0.0000    0.0000 C   0  0  0  0  0  0  0  0  0  0  0  0
    0.0000    0.0000    0.0000 C   0  0  0  0  0  0  0  0  0  0  0  0
    0.0000    0.0000    0.0000 C   0  0  0  0  0  0  0  0  0  0  0  0
    0.0000    0.0000    0.0000 N   0  0  0  0  0  0  0  0  0  0  0  0
    0.0000    0.0000    0.0000 C   0  0  0  0  0  0  0  0  0  0  0  0
    0.0000    0.0000    0.0000 N   0  0  0  0  0  0  0  0  0  0  0  0
    0.0000    0.0000    0.0000 S   0  0  0  0  0  0  0  0  0  0  0  0
    0.0000    0.0000    0.0000 C   0  0  0  0  0  0  0  0  0  0  0  0
    0.0000    0.0000    0.0000 C   0  0  0  0  0  0  0  0  0  0  0  0
    0.0000    0.0000    0.0000 C   0  0  0  0  0  0  0  0  0  0  0  0
    0.0000    0.0000    0.0000 C   0  0  0  0  0  0  0  0  0  0  0  0
    0.0000    0.0000    0.0000 C   0  0  0  0  0  0  0  0  0  0  0  0
  1  2  1  0
  2  3  1  0
  3  4  1  0
  4  5  1  0
  5  6  1  0
  6  7  2  0
  7  8  1  0
  8  9  1  0
  9 10  2  0
 10 11  1  0
 10 12  1  0
 12 13  1  0
 13 14  1  0
 14 15  2  0
 15 16  1  0
 16 17  1  0
 17  3  1  0
 15  6  1  0
 13  8  2  0
M  END
>  <pIC50>  (388) 
4.72

>  <ChEMBL_ID>  (388) 
CHEMBL2326489

>  <document_journal>  (388) 
Bioorg. Med. Chem. Lett.

>  <bao_endpoint>  (388) 
BAO_0000190

>  <potential_duplicate>  (388) 
False

>  <uo_units>  (388) 
UO_0000065

>  <canonical_smiles>  (388) 
CCN1CCc2cc3nc(N)sc3cc2CC1

>  <parent_molecule_chembl_id>  (388) 
CHEMBL2326489

>  <assay_type>  (388) 
F

>  <src_id>  (388) 
1

>  <ligand_efficiency>  (388) 
None

>  <standard_flag>  (388) 
True

>  <molecule_chembl_id>  (388) 
CHEMBL2326489

>  <target_organism>  (388) 
Homo sapiens

>  <standard_units>  (388) 
nM

>  <record_id>  (388) 
1852973

>  <document_chembl_id>  (388) 
CHEMBL2321835

>  <bao_format>  (388) 
BAO_0000219

>  <data_validity_description>  (388) 
None

>  <activity_id>  (388) 
12652699

>  <standard_type>  (388) 
IC50

>  <target_chembl_id>  (388) 
CHEMBL217

>  <data_validity_comment>  (388) 
None

>  <published_value>  (388) 
19

>  <document_year>  (388) 
2013

>  <target_pref_name>  (388) 
Dopamine D2 receptor

>  <assay_chembl_id>  (388) 
CHEMBL2328744

>  <standard_relation>  (388) 
=

>  <assay_description>  (388) 
Antagonist activity at human D2 dopamine receptor expressed in CHO cell membrane by GTPgammaS-binding assay

>  <published_relation>  (388) 
=

>  <standard_value>  (388) 
19000

>  <qudt_units>  (388) 
http://www.openphacts.org/units/Nanomolar

>  <target_tax_id>  (388) 
9606

>  <bao_label>  (388) 
cell-based format

>  <published_units>  (388) 
uM

>  <pchembl_value>  (388) 
4.72

>  <published_type>  (388) 
IC50

>  <activity_comment>  (388) 
None

$$$$

     RDKit          

 16 18  0  0  0  0  0  0  0  0999 V2000
    0.0000    0.0000    0.0000 C   0  0  0  0  0  0  0  0  0  0  0  0
    0.0000    0.0000    0.0000 N   0  0  0  0  0  0  0  0  0  0  0  0
    0.0000    0.0000    0.0000 C   0  0  0  0  0  0  0  0  0  0  0  0
    0.0000    0.0000    0.0000 C   0  0  0  0  0  0  0  0  0  0  0  0
    0.0000    0.0000    0.0000 C   0  0  0  0  0  0  0  0  0  0  0  0
    0.0000    0.0000    0.0000 C   0  0  0  0  0  0  0  0  0  0  0  0
    0.0000    0.0000    0.0000 C   0  0  0  0  0  0  0  0  0  0  0  0
    0.0000    0.0000    0.0000 N   0  0  0  0  0  0  0  0  0  0  0  0
    0.0000    0.0000    0.0000 C   0  0  0  0  0  0  0  0  0  0  0  0
    0.0000    0.0000    0.0000 N   0  0  0  0  0  0  0  0  0  0  0  0
    0.0000    0.0000    0.0000 S   0  0  0  0  0  0  0  0  0  0  0  0
    0.0000    0.0000    0.0000 C   0  0  0  0  0  0  0  0  0  0  0  0
    0.0000    0.0000    0.0000 C   0  0  0  0  0  0  0  0  0  0  0  0
    0.0000    0.0000    0.0000 C   0  0  0  0  0  0  0  0  0  0  0  0
    0.0000    0.0000    0.0000 C   0  0  0  0  0  0  0  0  0  0  0  0
    0.0000    0.0000    0.0000 C   0  0  0  0  0  0  0  0  0  0  0  0
  1  2  1  0
  2  3  1  0
  3  4  1  0
  4  5  1  0
  5  6  2  0
  6  7  1  0
  7  8  1  0
  8  9  2  0
  9 10  1  0
  9 11  1  0
 11 12  1  0
 12 13  1  0
 13 14  2  0
 14 15  1  0
 15 16  1  0
 16  2  1  0
 14  5  1  0
 12  7  2  0
M  END
>  <pIC50>  (389) 
5.85

>  <ChEMBL_ID>  (389) 
CHEMBL2326488

>  <document_journal>  (389) 
Bioorg. Med. Chem. Lett.

>  <bao_endpoint>  (389) 
BAO_0000190

>  <potential_duplicate>  (389) 
False

>  <uo_units>  (389) 
UO_0000065

>  <canonical_smiles>  (389) 
CN1CCc2cc3nc(N)sc3cc2CC1

>  <parent_molecule_chembl_id>  (389) 
CHEMBL2326488

>  <assay_type>  (389) 
F

>  <src_id>  (389) 
1

>  <ligand_efficiency>  (389) 
None

>  <standard_flag>  (389) 
True

>  <molecule_chembl_id>  (389) 
CHEMBL2326488

>  <target_organism>  (389) 
Homo sapiens

>  <standard_units>  (389) 
nM

>  <record_id>  (389) 
1852972

>  <document_chembl_id>  (389) 
CHEMBL2321835

>  <bao_format>  (389) 
BAO_0000219

>  <data_validity_description>  (389) 
None

>  <activity_id>  (389) 
12652700

>  <standard_type>  (389) 
IC50

>  <target_chembl_id>  (389) 
CHEMBL217

>  <data_validity_comment>  (389) 
None

>  <published_value>  (389) 
1.4

>  <document_year>  (389) 
2013

>  <target_pref_name>  (389) 
Dopamine D2 receptor

>  <assay_chembl_id>  (389) 
CHEMBL2328744

>  <standard_relation>  (389) 
=

>  <assay_description>  (389) 
Antagonist activity at human D2 dopamine receptor expressed in CHO cell membrane by GTPgammaS-binding assay

>  <published_relation>  (389) 
=

>  <standard_value>  (389) 
1400

>  <qudt_units>  (389) 
http://www.openphacts.org/units/Nanomolar

>  <target_tax_id>  (389) 
9606

>  <bao_label>  (389) 
cell-based format

>  <published_units>  (389) 
uM

>  <pchembl_value>  (389) 
5.85

>  <published_type>  (389) 
IC50

>  <activity_comment>  (389) 
None

$$$$

     RDKit          

 15 17  0  0  0  0  0  0  0  0999 V2000
    0.0000    0.0000    0.0000 N   0  0  0  0  0  0  0  0  0  0  0  0
    0.0000    0.0000    0.0000 C   0  0  0  0  0  0  0  0  0  0  0  0
    0.0000    0.0000    0.0000 N   0  0  0  0  0  0  0  0  0  0  0  0
    0.0000    0.0000    0.0000 C   0  0  0  0  0  0  0  0  0  0  0  0
    0.0000    0.0000    0.0000 C   0  0  0  0  0  0  0  0  0  0  0  0
    0.0000    0.0000    0.0000 C   0  0  0  0  0  0  0  0  0  0  0  0
    0.0000    0.0000    0.0000 C   0  0  0  0  0  0  0  0  0  0  0  0
    0.0000    0.0000    0.0000 C   0  0  0  0  0  0  0  0  0  0  0  0
    0.0000    0.0000    0.0000 N   0  0  0  0  0  0  0  0  0  0  0  0
    0.0000    0.0000    0.0000 C   0  0  0  0  0  0  0  0  0  0  0  0
    0.0000    0.0000    0.0000 C   0  0  0  0  0  0  0  0  0  0  0  0
    0.0000    0.0000    0.0000 C   0  0  0  0  0  0  0  0  0  0  0  0
    0.0000    0.0000    0.0000 C   0  0  0  0  0  0  0  0  0  0  0  0
    0.0000    0.0000    0.0000 C   0  0  0  0  0  0  0  0  0  0  0  0
    0.0000    0.0000    0.0000 S   0  0  0  0  0  0  0  0  0  0  0  0
  1  2  1  0
  2  3  2  0
  3  4  1  0
  4  5  2  0
  5  6  1  0
  6  7  1  0
  7  8  1  0
  8  9  1  0
  9 10  1  0
 10 11  1  0
 11 12  1  0
 12 13  1  0
 13 14  2  0
 14 15  1  0
 15  2  1  0
 14  4  1  0
 12  6  2  0
M  END
>  <pIC50>  (390) 
5.12

>  <ChEMBL_ID>  (390) 
CHEMBL2326487

>  <document_journal>  (390) 
Bioorg. Med. Chem. Lett.

>  <bao_endpoint>  (390) 
BAO_0000190

>  <potential_duplicate>  (390) 
False

>  <uo_units>  (390) 
UO_0000065

>  <canonical_smiles>  (390) 
Nc1nc2cc3CCNCCc3cc2s1

>  <parent_molecule_chembl_id>  (390) 
CHEMBL2326487

>  <assay_type>  (390) 
F

>  <src_id>  (390) 
1

>  <ligand_efficiency>  (390) 
None

>  <standard_flag>  (390) 
True

>  <molecule_chembl_id>  (390) 
CHEMBL2326487

>  <target_organism>  (390) 
Homo sapiens

>  <standard_units>  (390) 
nM

>  <record_id>  (390) 
1852971

>  <document_chembl_id>  (390) 
CHEMBL2321835

>  <bao_format>  (390) 
BAO_0000219

>  <data_validity_description>  (390) 
None

>  <activity_id>  (390) 
12652701

>  <standard_type>  (390) 
IC50

>  <target_chembl_id>  (390) 
CHEMBL217

>  <data_validity_comment>  (390) 
None

>  <published_value>  (390) 
7.6

>  <document_year>  (390) 
2013

>  <target_pref_name>  (390) 
Dopamine D2 receptor

>  <assay_chembl_id>  (390) 
CHEMBL2328744

>  <standard_relation>  (390) 
=

>  <assay_description>  (390) 
Antagonist activity at human D2 dopamine receptor expressed in CHO cell membrane by GTPgammaS-binding assay

>  <published_relation>  (390) 
=

>  <standard_value>  (390) 
7600

>  <qudt_units>  (390) 
http://www.openphacts.org/units/Nanomolar

>  <target_tax_id>  (390) 
9606

>  <bao_label>  (390) 
cell-based format

>  <published_units>  (390) 
uM

>  <pchembl_value>  (390) 
5.12

>  <published_type>  (390) 
IC50

>  <activity_comment>  (390) 
None

$$$$

     RDKit          

 16 18  0  0  0  0  0  0  0  0999 V2000
    0.0000    0.0000    0.0000 C   0  0  0  0  0  0  0  0  0  0  0  0
    0.0000    0.0000    0.0000 C   0  0  0  0  0  0  0  0  0  0  0  0
    0.0000    0.0000    0.0000 N   0  0  0  0  0  0  0  0  0  0  0  0
    0.0000    0.0000    0.0000 C   0  0  0  0  0  0  0  0  0  0  0  0
    0.0000    0.0000    0.0000 C   0  0  0  0  0  0  0  0  0  0  0  0
    0.0000    0.0000    0.0000 C   0  0  0  0  0  0  0  0  0  0  0  0
    0.0000    0.0000    0.0000 C   0  0  0  0  0  0  0  0  0  0  0  0
    0.0000    0.0000    0.0000 C   0  0  0  0  0  0  0  0  0  0  0  0
    0.0000    0.0000    0.0000 N   0  0  0  0  0  0  0  0  0  0  0  0
    0.0000    0.0000    0.0000 C   0  0  0  0  0  0  0  0  0  0  0  0
    0.0000    0.0000    0.0000 N   0  0  0  0  0  0  0  0  0  0  0  0
    0.0000    0.0000    0.0000 S   0  0  0  0  0  0  0  0  0  0  0  0
    0.0000    0.0000    0.0000 C   0  0  0  0  0  0  0  0  0  0  0  0
    0.0000    0.0000    0.0000 C   0  0  0  0  0  0  0  0  0  0  0  0
    0.0000    0.0000    0.0000 C   0  0  0  0  0  0  0  0  0  0  0  0
    0.0000    0.0000    0.0000 C   0  0  0  0  0  0  0  0  0  0  0  0
  1  2  1  0
  2  3  1  0
  3  4  1  0
  4  5  1  0
  5  6  1  0
  6  7  2  0
  7  8  1  0
  8  9  1  0
  9 10  2  0
 10 11  1  0
 10 12  1  0
 12 13  1  0
 13 14  1  0
 14 15  2  0
 15 16  1  0
 16  4  1  0
 15  6  1  0
 13  8  2  0
M  END
>  <pIC50>  (391) 
6.17

>  <ChEMBL_ID>  (391) 
CHEMBL2326486

>  <document_journal>  (391) 
Bioorg. Med. Chem. Lett.

>  <bao_endpoint>  (391) 
BAO_0000190

>  <potential_duplicate>  (391) 
False

>  <uo_units>  (391) 
UO_0000065

>  <canonical_smiles>  (391) 
CCN[C@@H]1Cc2cc3nc(N)sc3cc2C1

>  <parent_molecule_chembl_id>  (391) 
CHEMBL2326486

>  <assay_type>  (391) 
F

>  <src_id>  (391) 
1

>  <ligand_efficiency>  (391) 
None

>  <standard_flag>  (391) 
True

>  <molecule_chembl_id>  (391) 
CHEMBL2326486

>  <target_organism>  (391) 
Homo sapiens

>  <standard_units>  (391) 
nM

>  <record_id>  (391) 
1852969

>  <document_chembl_id>  (391) 
CHEMBL2321835

>  <bao_format>  (391) 
BAO_0000219

>  <data_validity_description>  (391) 
None

>  <activity_id>  (391) 
12652703

>  <standard_type>  (391) 
IC50

>  <target_chembl_id>  (391) 
CHEMBL217

>  <data_validity_comment>  (391) 
None

>  <published_value>  (391) 
670

>  <document_year>  (391) 
2013

>  <target_pref_name>  (391) 
Dopamine D2 receptor

>  <assay_chembl_id>  (391) 
CHEMBL2328744

>  <standard_relation>  (391) 
=

>  <assay_description>  (391) 
Antagonist activity at human D2 dopamine receptor expressed in CHO cell membrane by GTPgammaS-binding assay

>  <published_relation>  (391) 
=

>  <standard_value>  (391) 
670

>  <qudt_units>  (391) 
http://www.openphacts.org/units/Nanomolar

>  <target_tax_id>  (391) 
9606

>  <bao_label>  (391) 
cell-based format

>  <published_units>  (391) 
nM

>  <pchembl_value>  (391) 
6.17

>  <published_type>  (391) 
IC50

>  <activity_comment>  (391) 
None

$$$$

     RDKit          

 29 33  0  0  0  0  0  0  0  0999 V2000
    0.0000    0.0000    0.0000 O   0  0  0  0  0  0  0  0  0  0  0  0
    0.0000    0.0000    0.0000 C   0  0  0  0  0  0  0  0  0  0  0  0
    0.0000    0.0000    0.0000 N   0  0  0  0  0  0  0  0  0  0  0  0
    0.0000    0.0000    0.0000 C   0  0  0  0  0  0  0  0  0  0  0  0
    0.0000    0.0000    0.0000 C   0  0  0  0  0  0  0  0  0  0  0  0
    0.0000    0.0000    0.0000 C   0  0  0  0  0  0  0  0  0  0  0  0
    0.0000    0.0000    0.0000 C   0  0  0  0  0  0  0  0  0  0  0  0
    0.0000    0.0000    0.0000 C   0  0  0  0  0  0  0  0  0  0  0  0
    0.0000    0.0000    0.0000 N   0  0  0  0  0  0  0  0  0  0  0  0
    0.0000    0.0000    0.0000 C   0  0  0  0  0  0  0  0  0  0  0  0
    0.0000    0.0000    0.0000 C   0  0  0  0  0  0  0  0  0  0  0  0
    0.0000    0.0000    0.0000 N   0  0  0  0  0  0  0  0  0  0  0  0
    0.0000    0.0000    0.0000 C   0  0  0  0  0  0  0  0  0  0  0  0
    0.0000    0.0000    0.0000 C   0  0  0  0  0  0  0  0  0  0  0  0
    0.0000    0.0000    0.0000 C   0  0  0  0  0  0  0  0  0  0  0  0
    0.0000    0.0000    0.0000 C   0  0  0  0  0  0  0  0  0  0  0  0
    0.0000    0.0000    0.0000 C   0  0  0  0  0  0  0  0  0  0  0  0
    0.0000    0.0000    0.0000 C   0  0  0  0  0  0  0  0  0  0  0  0
    0.0000    0.0000    0.0000 C   0  0  0  0  0  0  0  0  0  0  0  0
    0.0000    0.0000    0.0000 C   0  0  0  0  0  0  0  0  0  0  0  0
    0.0000    0.0000    0.0000 C   0  0  0  0  0  0  0  0  0  0  0  0
    0.0000    0.0000    0.0000 C   0  0  0  0  0  0  0  0  0  0  0  0
    0.0000    0.0000    0.0000 C   0  0  0  0  0  0  0  0  0  0  0  0
    0.0000    0.0000    0.0000 C   0  0  0  0  0  0  0  0  0  0  0  0
    0.0000    0.0000    0.0000 C   0  0  0  0  0  0  0  0  0  0  0  0
    0.0000    0.0000    0.0000 C   0  0  0  0  0  0  0  0  0  0  0  0
    0.0000    0.0000    0.0000 C   0  0  0  0  0  0  0  0  0  0  0  0
    0.0000    0.0000    0.0000 C   0  0  0  0  0  0  0  0  0  0  0  0
    0.0000    0.0000    0.0000 O   0  0  0  0  0  0  0  0  0  0  0  0
  1  2  2  0
  2  3  1  0
  3  4  1  0
  4  5  2  0
  5  6  1  0
  6  7  2  0
  7  8  1  0
  8  9  1  0
  9 10  1  0
 10 11  1  0
 11 12  1  0
 12 13  1  0
 13 14  1  0
 14 15  2  0
 15 16  1  0
 16 17  2  0
 17 18  1  0
 18 19  2  0
 18 20  1  0
 20 21  2  0
 21 22  1  0
 22 23  2  0
 23 24  1  0
 24 25  2  0
 12 26  1  0
 26 27  1  0
  8 28  2  0
 28 29  1  0
 29  2  1  0
 28  4  1  0
 27  9  1  0
 19 14  1  0
 25 20  1  0
M  END
>  <pIC50>  (392) 
8.54

>  <ChEMBL_ID>  (392) 
CHEMBL218166

>  <document_journal>  (392) 
Bioorg. Med. Chem. Lett.

>  <bao_endpoint>  (392) 
BAO_0000190

>  <potential_duplicate>  (392) 
False

>  <uo_units>  (392) 
UO_0000065

>  <canonical_smiles>  (392) 
O=C1Nc2cccc(N3CCN(Cc4cccc(c4)c5ccccc5)CC3)c2O1

>  <parent_molecule_chembl_id>  (392) 
CHEMBL218166

>  <assay_type>  (392) 
F

>  <src_id>  (392) 
1

>  <ligand_efficiency>  (392) 
None

>  <standard_flag>  (392) 
True

>  <molecule_chembl_id>  (392) 
CHEMBL218166

>  <target_organism>  (392) 
Homo sapiens

>  <standard_units>  (392) 
nM

>  <record_id>  (392) 
1852968

>  <document_chembl_id>  (392) 
CHEMBL2321835

>  <bao_format>  (392) 
BAO_0000219

>  <data_validity_description>  (392) 
None

>  <activity_id>  (392) 
12652704

>  <standard_type>  (392) 
IC50

>  <target_chembl_id>  (392) 
CHEMBL217

>  <data_validity_comment>  (392) 
None

>  <published_value>  (392) 
2.9

>  <document_year>  (392) 
2013

>  <target_pref_name>  (392) 
Dopamine D2 receptor

>  <assay_chembl_id>  (392) 
CHEMBL2328744

>  <standard_relation>  (392) 
=

>  <assay_description>  (392) 
Antagonist activity at human D2 dopamine receptor expressed in CHO cell membrane by GTPgammaS-binding assay

>  <published_relation>  (392) 
=

>  <standard_value>  (392) 
2.9

>  <qudt_units>  (392) 
http://www.openphacts.org/units/Nanomolar

>  <target_tax_id>  (392) 
9606

>  <bao_label>  (392) 
cell-based format

>  <published_units>  (392) 
nM

>  <pchembl_value>  (392) 
8.54

>  <published_type>  (392) 
IC50

>  <activity_comment>  (392) 
None

$$$$

     RDKit          

 30 33  0  0  0  0  0  0  0  0999 V2000
    0.0000    0.0000    0.0000 Cl  0  0  0  0  0  0  0  0  0  0  0  0
    0.0000    0.0000    0.0000 C   0  0  0  0  0  0  0  0  0  0  0  0
    0.0000    0.0000    0.0000 C   0  0  0  0  0  0  0  0  0  0  0  0
    0.0000    0.0000    0.0000 C   0  0  0  0  0  0  0  0  0  0  0  0
    0.0000    0.0000    0.0000 C   0  0  0  0  0  0  0  0  0  0  0  0
    0.0000    0.0000    0.0000 C   0  0  0  0  0  0  0  0  0  0  0  0
    0.0000    0.0000    0.0000 N   0  0  0  0  0  0  0  0  0  0  0  0
    0.0000    0.0000    0.0000 C   0  0  0  0  0  0  0  0  0  0  0  0
    0.0000    0.0000    0.0000 C   0  0  0  0  0  0  0  0  0  0  0  0
    0.0000    0.0000    0.0000 N   0  0  0  0  0  0  0  0  0  0  0  0
    0.0000    0.0000    0.0000 C   0  0  0  0  0  0  0  0  0  0  0  0
    0.0000    0.0000    0.0000 C   0  0  0  0  0  0  0  0  0  0  0  0
    0.0000    0.0000    0.0000 C   0  0  0  0  0  0  0  0  0  0  0  0
    0.0000    0.0000    0.0000 C   0  0  0  0  0  0  0  0  0  0  0  0
    0.0000    0.0000    0.0000 O   0  0  0  0  0  0  0  0  0  0  0  0
    0.0000    0.0000    0.0000 C   0  0  0  0  0  0  0  0  0  0  0  0
    0.0000    0.0000    0.0000 C   0  0  0  0  0  0  0  0  0  0  0  0
    0.0000    0.0000    0.0000 C   0  0  0  0  0  0  0  0  0  0  0  0
    0.0000    0.0000    0.0000 C   0  0  0  0  0  0  0  0  0  0  0  0
    0.0000    0.0000    0.0000 C   0  0  0  0  0  0  0  0  0  0  0  0
    0.0000    0.0000    0.0000 C   0  0  0  0  0  0  0  0  0  0  0  0
    0.0000    0.0000    0.0000 C   0  0  0  0  0  0  0  0  0  0  0  0
    0.0000    0.0000    0.0000 O   0  0  0  0  0  0  0  0  0  0  0  0
    0.0000    0.0000    0.0000 N   0  0  0  0  0  0  0  0  0  0  0  0
    0.0000    0.0000    0.0000 C   0  0  0  0  0  0  0  0  0  0  0  0
    0.0000    0.0000    0.0000 C   0  0  0  0  0  0  0  0  0  0  0  0
    0.0000    0.0000    0.0000 C   0  0  0  0  0  0  0  0  0  0  0  0
    0.0000    0.0000    0.0000 C   0  0  0  0  0  0  0  0  0  0  0  0
    0.0000    0.0000    0.0000 C   0  0  0  0  0  0  0  0  0  0  0  0
    0.0000    0.0000    0.0000 Cl  0  0  0  0  0  0  0  0  0  0  0  0
  1  2  1  0
  2  3  2  0
  3  4  1  0
  4  5  2  0
  5  6  1  0
  6  7  1  0
  7  8  1  0
  8  9  1  0
  9 10  1  0
 10 11  1  0
 11 12  1  0
 12 13  1  0
 13 14  1  0
 14 15  1  0
 15 16  1  0
 16 17  2  0
 17 18  1  0
 18 19  2  0
 19 20  1  0
 20 21  1  0
 21 22  1  0
 22 23  2  0
 22 24  1  0
 24 25  1  0
 25 26  2  0
 10 27  1  0
 27 28  1  0
  6 29  2  0
 29 30  1  0
 29  2  1  0
 28  7  1  0
 26 16  1  0
 25 19  1  0
M  END
>  <pIC50>  (393) 
7.9475

>  <ChEMBL_ID>  (393) 
CHEMBL1112

>  <document_journal>  (393) 
Bioorg. Med. Chem. Lett.

>  <bao_endpoint>  (393) 
BAO_0000190

>  <potential_duplicate>  (393) 
False

>  <uo_units>  (393) 
UO_0000065

>  <canonical_smiles>  (393) 
Clc1cccc(N2CCN(CCCCOc3ccc4CCC(=O)Nc4c3)CC2)c1Cl

>  <parent_molecule_chembl_id>  (393) 
CHEMBL1112

>  <assay_type>  (393) 
F

>  <src_id>  (393) 
1

>  <ligand_efficiency>  (393) 
None

>  <standard_flag>  (393) 
True

>  <molecule_chembl_id>  (393) 
CHEMBL1112

>  <target_organism>  (393) 
Homo sapiens

>  <standard_units>  (393) 
nM

>  <record_id>  (393) 
1852967

>  <document_chembl_id>  (393) 
CHEMBL2321835

>  <bao_format>  (393) 
BAO_0000219

>  <data_validity_description>  (393) 
None

>  <activity_id>  (393) 
12652705

>  <standard_type>  (393) 
IC50

>  <target_chembl_id>  (393) 
CHEMBL217

>  <data_validity_comment>  (393) 
None

>  <published_value>  (393) 
7.6

>  <document_year>  (393) 
2013

>  <target_pref_name>  (393) 
Dopamine D2 receptor

>  <assay_chembl_id>  (393) 
CHEMBL2328744

>  <standard_relation>  (393) 
=

>  <assay_description>  (393) 
Antagonist activity at human D2 dopamine receptor expressed in CHO cell membrane by GTPgammaS-binding assay

>  <published_relation>  (393) 
=

>  <standard_value>  (393) 
7.6

>  <qudt_units>  (393) 
http://www.openphacts.org/units/Nanomolar

>  <target_tax_id>  (393) 
9606

>  <bao_label>  (393) 
cell-based format

>  <published_units>  (393) 
nM

>  <pchembl_value>  (393) 
8.12

>  <published_type>  (393) 
IC50

>  <activity_comment>  (393) 
None

$$$$

     RDKit          

 29 32  0  0  0  0  0  0  0  0999 V2000
    0.0000    0.0000    0.0000 F   0  0  0  0  0  0  0  0  0  0  0  0
    0.0000    0.0000    0.0000 C   0  0  0  0  0  0  0  0  0  0  0  0
    0.0000    0.0000    0.0000 C   0  0  0  0  0  0  0  0  0  0  0  0
    0.0000    0.0000    0.0000 C   0  0  0  0  0  0  0  0  0  0  0  0
    0.0000    0.0000    0.0000 C   0  0  0  0  0  0  0  0  0  0  0  0
    0.0000    0.0000    0.0000 C   0  0  0  0  0  0  0  0  0  0  0  0
    0.0000    0.0000    0.0000 C   0  0  0  0  0  0  0  0  0  0  0  0
    0.0000    0.0000    0.0000 C   0  0  0  0  0  0  0  0  0  0  0  0
    0.0000    0.0000    0.0000 O   0  0  0  0  0  0  0  0  0  0  0  0
    0.0000    0.0000    0.0000 N   0  0  0  0  0  0  0  0  0  0  0  0
    0.0000    0.0000    0.0000 C   0  0  0  0  0  0  0  0  0  0  0  0
    0.0000    0.0000    0.0000 C   0  0  0  0  0  0  0  0  0  0  0  0
    0.0000    0.0000    0.0000 N   0  0  0  0  0  0  0  0  0  0  0  0
    0.0000    0.0000    0.0000 C   0  0  0  0  0  0  0  0  0  0  0  0
    0.0000    0.0000    0.0000 C   0  0  0  0  0  0  0  0  0  0  0  0
    0.0000    0.0000    0.0000 C   0  0  0  0  0  0  0  0  0  0  0  0
    0.0000    0.0000    0.0000 C   0  0  0  0  0  0  0  0  0  0  0  0
    0.0000    0.0000    0.0000 C   0  0  0  0  0  0  0  0  0  0  0  0
    0.0000    0.0000    0.0000 N   0  0  0  0  0  0  0  0  0  0  0  0
    0.0000    0.0000    0.0000 C   0  0  0  0  0  0  0  0  0  0  0  0
    0.0000    0.0000    0.0000 O   0  0  0  0  0  0  0  0  0  0  0  0
    0.0000    0.0000    0.0000 N   0  0  0  0  0  0  0  0  0  0  0  0
    0.0000    0.0000    0.0000 C   0  0  0  0  0  0  0  0  0  0  0  0
    0.0000    0.0000    0.0000 C   0  0  0  0  0  0  0  0  0  0  0  0
    0.0000    0.0000    0.0000 C   0  0  0  0  0  0  0  0  0  0  0  0
    0.0000    0.0000    0.0000 Cl  0  0  0  0  0  0  0  0  0  0  0  0
    0.0000    0.0000    0.0000 C   0  0  0  0  0  0  0  0  0  0  0  0
    0.0000    0.0000    0.0000 C   0  0  0  0  0  0  0  0  0  0  0  0
    0.0000    0.0000    0.0000 C   0  0  0  0  0  0  0  0  0  0  0  0
  1  2  1  0
  2  3  2  0
  3  4  1  0
  4  5  2  0
  5  6  1  0
  6  7  2  0
  5  8  1  0
  8  9  2  0
  8 10  1  0
 10 11  1  0
 11 12  1  0
 12 13  1  0
 13 14  1  0
 14 15  1  0
 15 16  1  0
 16 17  1  0
 17 18  1  0
 16 19  1  0
 19 20  1  0
 20 21  2  0
 20 22  1  0
 22 23  1  0
 23 24  2  0
 24 25  1  0
 25 26  1  0
 25 27  2  0
 27 28  1  0
 28 29  2  0
  7  2  1  0
 18 13  1  0
 29 19  1  0
 29 23  1  0
M  END
>  <pIC50>  (394) 
8.16

>  <ChEMBL_ID>  (394) 
CHEMBL245621

>  <document_journal>  (394) 
J. Med. Chem.

>  <bao_endpoint>  (394) 
BAO_0000190

>  <potential_duplicate>  (394) 
False

>  <uo_units>  (394) 
UO_0000065

>  <canonical_smiles>  (394) 
Fc1ccc(cc1)C(=O)NCCN2CCC(CC2)N3C(=O)Nc4cc(Cl)ccc34

>  <parent_molecule_chembl_id>  (394) 
CHEMBL245621

>  <assay_type>  (394) 
B

>  <src_id>  (394) 
1

>  <ligand_efficiency>  (394) 
{u'le': u'0.38', u'bei': u'19.56', u'sei': u'12.61', u'lle': u'5.41'}

>  <standard_flag>  (394) 
True

>  <molecule_chembl_id>  (394) 
CHEMBL245621

>  <target_organism>  (394) 
Homo sapiens

>  <standard_units>  (394) 
nM

>  <record_id>  (394) 
1851800

>  <document_chembl_id>  (394) 
CHEMBL2321744

>  <bao_format>  (394) 
BAO_0000357

>  <data_validity_description>  (394) 
None

>  <activity_id>  (394) 
12659408

>  <standard_type>  (394) 
IC50

>  <target_chembl_id>  (394) 
CHEMBL217

>  <data_validity_comment>  (394) 
None

>  <published_value>  (394) 
7

>  <document_year>  (394) 
2013

>  <target_pref_name>  (394) 
Dopamine D2 receptor

>  <assay_chembl_id>  (394) 
CHEMBL2330406

>  <standard_relation>  (394) 
=

>  <assay_description>  (394) 
Inhibition of dopamine receptor D2 (unknown origin)

>  <published_relation>  (394) 
=

>  <standard_value>  (394) 
7

>  <qudt_units>  (394) 
http://www.openphacts.org/units/Nanomolar

>  <target_tax_id>  (394) 
9606

>  <bao_label>  (394) 
single protein format

>  <published_units>  (394) 
nM

>  <pchembl_value>  (394) 
8.16

>  <published_type>  (394) 
IC50

>  <activity_comment>  (394) 
None

$$$$

     RDKit          

 25 28  0  0  0  0  0  0  0  0999 V2000
    0.0000    0.0000    0.0000 C   0  0  0  0  0  0  0  0  0  0  0  0
    0.0000    0.0000    0.0000 O   0  0  0  0  0  0  0  0  0  0  0  0
    0.0000    0.0000    0.0000 C   0  0  0  0  0  0  0  0  0  0  0  0
    0.0000    0.0000    0.0000 C   0  0  0  0  0  0  0  0  0  0  0  0
    0.0000    0.0000    0.0000 C   0  0  0  0  0  0  0  0  0  0  0  0
    0.0000    0.0000    0.0000 C   0  0  0  0  0  0  0  0  0  0  0  0
    0.0000    0.0000    0.0000 C   0  0  0  0  0  0  0  0  0  0  0  0
    0.0000    0.0000    0.0000 N   0  0  0  0  0  0  0  0  0  0  0  0
    0.0000    0.0000    0.0000 C   0  0  0  0  0  0  0  0  0  0  0  0
    0.0000    0.0000    0.0000 C   0  0  0  0  0  0  0  0  0  0  0  0
    0.0000    0.0000    0.0000 C   0  0  0  0  0  0  0  0  0  0  0  0
    0.0000    0.0000    0.0000 C   0  0  0  0  0  0  0  0  0  0  0  0
    0.0000    0.0000    0.0000 C   0  0  0  0  0  0  0  0  0  0  0  0
    0.0000    0.0000    0.0000 C   0  0  0  0  0  0  0  0  0  0  0  0
    0.0000    0.0000    0.0000 C   0  0  0  0  0  0  0  0  0  0  0  0
    0.0000    0.0000    0.0000 C   0  0  0  0  0  0  0  0  0  0  0  0
    0.0000    0.0000    0.0000 O   0  0  0  0  0  0  0  0  0  0  0  0
    0.0000    0.0000    0.0000 C   0  0  0  0  0  0  0  0  0  0  0  0
    0.0000    0.0000    0.0000 C   0  0  0  0  0  0  0  0  0  0  0  0
    0.0000    0.0000    0.0000 C   0  0  0  0  0  0  0  0  0  0  0  0
    0.0000    0.0000    0.0000 C   0  0  0  0  0  0  0  0  0  0  0  0
    0.0000    0.0000    0.0000 O   0  0  0  0  0  0  0  0  0  0  0  0
    0.0000    0.0000    0.0000 C   0  0  0  0  0  0  0  0  0  0  0  0
    0.0000    0.0000    0.0000 O   0  0  0  0  0  0  0  0  0  0  0  0
    0.0000    0.0000    0.0000 C   0  0  0  0  0  0  0  0  0  0  0  0
  1  2  1  0
  2  3  1  0
  3  4  2  0
  4  5  1  0
  5  6  1  0
  6  7  1  0
  7  8  1  0
  8  9  1  0
  9 10  1  0
 10 11  2  0
 11 12  1  0
 12 13  1  0
 13 14  1  0
 14 15  1  0
 15 16  2  0
 16 17  1  0
 17 18  1  0
 11 19  1  0
 19 20  2  0
 20 21  1  0
 21 22  1  0
 21 23  2  0
 23 24  1  0
 24 25  1  0
 16  3  1  0
 14  5  2  0
 13  8  1  0
 23 10  1  0
M  END
>  <pIC50>  (395) 
4.73

>  <ChEMBL_ID>  (395) 
CHEMBL448891

>  <document_journal>  (395) 
Bioorg. Med. Chem.

>  <bao_endpoint>  (395) 
BAO_0000190

>  <potential_duplicate>  (395) 
False

>  <uo_units>  (395) 
UO_0000065

>  <canonical_smiles>  (395) 
COc1cc2CCN3Cc4c(C[C@H]3c2cc1OC)ccc(O)c4OC

>  <parent_molecule_chembl_id>  (395) 
CHEMBL448891

>  <assay_type>  (395) 
F

>  <src_id>  (395) 
1

>  <ligand_efficiency>  (395) 
None

>  <standard_flag>  (395) 
True

>  <molecule_chembl_id>  (395) 
CHEMBL448891

>  <target_organism>  (395) 
Homo sapiens

>  <standard_units>  (395) 
nM

>  <record_id>  (395) 
1869386

>  <document_chembl_id>  (395) 
CHEMBL2331343

>  <bao_format>  (395) 
BAO_0000219

>  <data_validity_description>  (395) 
None

>  <activity_id>  (395) 
12698252

>  <standard_type>  (395) 
IC50

>  <target_chembl_id>  (395) 
CHEMBL217

>  <data_validity_comment>  (395) 
None

>  <published_value>  (395) 
18.73

>  <document_year>  (395) 
2013

>  <target_pref_name>  (395) 
Dopamine D2 receptor

>  <assay_chembl_id>  (395) 
CHEMBL2342830

>  <standard_relation>  (395) 
=

>  <assay_description>  (395) 
Antagonist activity at dopamine D2 receptor (unknown origin) expressed in HEK293 cells assessed as inhibition of [35S]GTPgammaS binding by scintillation proximity assay

>  <published_relation>  (395) 
=

>  <standard_value>  (395) 
18730

>  <qudt_units>  (395) 
http://www.openphacts.org/units/Nanomolar

>  <target_tax_id>  (395) 
9606

>  <bao_label>  (395) 
cell-based format

>  <published_units>  (395) 
uM

>  <pchembl_value>  (395) 
4.73

>  <published_type>  (395) 
IC50

>  <activity_comment>  (395) 
None

$$$$

     RDKit          

 24 28  0  0  0  0  0  0  0  0999 V2000
    0.0000    0.0000    0.0000 C   0  0  0  0  0  0  0  0  0  0  0  0
    0.0000    0.0000    0.0000 O   0  0  0  0  0  0  0  0  0  0  0  0
    0.0000    0.0000    0.0000 C   0  0  0  0  0  0  0  0  0  0  0  0
    0.0000    0.0000    0.0000 C   0  0  0  0  0  0  0  0  0  0  0  0
    0.0000    0.0000    0.0000 O   0  0  0  0  0  0  0  0  0  0  0  0
    0.0000    0.0000    0.0000 C   0  0  0  0  0  0  0  0  0  0  0  0
    0.0000    0.0000    0.0000 C   0  0  0  0  0  0  0  0  0  0  0  0
    0.0000    0.0000    0.0000 C   0  0  0  0  0  0  0  0  0  0  0  0
    0.0000    0.0000    0.0000 C   0  0  0  0  0  0  0  0  0  0  0  0
    0.0000    0.0000    0.0000 C   0  0  0  0  0  0  0  0  0  0  0  0
    0.0000    0.0000    0.0000 N   0  0  0  0  0  0  0  0  0  0  0  0
    0.0000    0.0000    0.0000 C   0  0  0  0  0  0  0  0  0  0  0  0
    0.0000    0.0000    0.0000 C   0  0  0  0  0  0  0  0  0  0  0  0
    0.0000    0.0000    0.0000 C   0  0  0  0  0  0  0  0  0  0  0  0
    0.0000    0.0000    0.0000 C   0  0  0  0  0  0  0  0  0  0  0  0
    0.0000    0.0000    0.0000 C   0  0  0  0  0  0  0  0  0  0  0  0
    0.0000    0.0000    0.0000 O   0  0  0  0  0  0  0  0  0  0  0  0
    0.0000    0.0000    0.0000 C   0  0  0  0  0  0  0  0  0  0  0  0
    0.0000    0.0000    0.0000 O   0  0  0  0  0  0  0  0  0  0  0  0
    0.0000    0.0000    0.0000 C   0  0  0  0  0  0  0  0  0  0  0  0
    0.0000    0.0000    0.0000 C   0  0  0  0  0  0  0  0  0  0  0  0
    0.0000    0.0000    0.0000 C   0  0  0  0  0  0  0  0  0  0  0  0
    0.0000    0.0000    0.0000 C   0  0  0  0  0  0  0  0  0  0  0  0
    0.0000    0.0000    0.0000 C   0  0  0  0  0  0  0  0  0  0  0  0
  1  2  1  0
  2  3  1  0
  3  4  2  0
  4  5  1  0
  4  6  1  0
  6  7  2  0
  7  8  1  0
  8  9  1  0
  9 10  1  0
 10 11  1  0
 11 12  1  0
 12 13  1  0
 13 14  1  0
 14 15  2  0
 15 16  1  0
 16 17  1  0
 17 18  1  0
 18 19  1  0
 19 20  1  0
 20 21  1  0
 21 22  2  0
 11 23  1  0
 23 24  1  0
 24  3  1  0
 24  8  2  0
 22 10  1  0
 22 14  1  0
 20 16  2  0
M  END
>  <pIC50>  (396) 
6.0

>  <ChEMBL_ID>  (396) 
CHEMBL1457510

>  <document_journal>  (396) 
Bioorg. Med. Chem.

>  <bao_endpoint>  (396) 
BAO_0000190

>  <potential_duplicate>  (396) 
False

>  <uo_units>  (396) 
UO_0000065

>  <canonical_smiles>  (396) 
COc1c(O)ccc2C[C@@H]3N(CCc4cc5OCOc5cc34)Cc12

>  <parent_molecule_chembl_id>  (396) 
CHEMBL1457510

>  <assay_type>  (396) 
F

>  <src_id>  (396) 
1

>  <ligand_efficiency>  (396) 
None

>  <standard_flag>  (396) 
True

>  <molecule_chembl_id>  (396) 
CHEMBL1457510

>  <target_organism>  (396) 
Homo sapiens

>  <standard_units>  (396) 
nM

>  <record_id>  (396) 
1869352

>  <document_chembl_id>  (396) 
CHEMBL2331343

>  <bao_format>  (396) 
BAO_0000219

>  <data_validity_description>  (396) 
None

>  <activity_id>  (396) 
12698257

>  <standard_type>  (396) 
IC50

>  <target_chembl_id>  (396) 
CHEMBL217

>  <data_validity_comment>  (396) 
None

>  <published_value>  (396) 
1

>  <document_year>  (396) 
2013

>  <target_pref_name>  (396) 
Dopamine D2 receptor

>  <assay_chembl_id>  (396) 
CHEMBL2342830

>  <standard_relation>  (396) 
=

>  <assay_description>  (396) 
Antagonist activity at dopamine D2 receptor (unknown origin) expressed in HEK293 cells assessed as inhibition of [35S]GTPgammaS binding by scintillation proximity assay

>  <published_relation>  (396) 
=

>  <standard_value>  (396) 
1000

>  <qudt_units>  (396) 
http://www.openphacts.org/units/Nanomolar

>  <target_tax_id>  (396) 
9606

>  <bao_label>  (396) 
cell-based format

>  <published_units>  (396) 
uM

>  <pchembl_value>  (396) 
6

>  <published_type>  (396) 
IC50

>  <activity_comment>  (396) 
None

$$$$

     RDKit          

 24 27  0  0  0  0  0  0  0  0999 V2000
    0.0000    0.0000    0.0000 C   0  0  0  0  0  0  0  0  0  0  0  0
    0.0000    0.0000    0.0000 O   0  0  0  0  0  0  0  0  0  0  0  0
    0.0000    0.0000    0.0000 C   0  0  0  0  0  0  0  0  0  0  0  0
    0.0000    0.0000    0.0000 C   0  0  0  0  0  0  0  0  0  0  0  0
    0.0000    0.0000    0.0000 C   0  0  0  0  0  0  0  0  0  0  0  0
    0.0000    0.0000    0.0000 C   0  0  0  0  0  0  0  0  0  0  0  0
    0.0000    0.0000    0.0000 C   0  0  0  0  0  0  0  0  0  0  0  0
    0.0000    0.0000    0.0000 C   0  0  0  0  0  0  0  0  0  0  0  0
    0.0000    0.0000    0.0000 C   0  0  0  0  0  0  0  0  0  0  0  0
    0.0000    0.0000    0.0000 O   0  0  0  0  0  0  0  0  0  0  0  0
    0.0000    0.0000    0.0000 C   0  0  0  0  0  0  0  0  0  0  0  0
    0.0000    0.0000    0.0000 C   0  0  0  0  0  0  0  0  0  0  0  0
    0.0000    0.0000    0.0000 N   0  0  0  0  0  0  0  0  0  0  0  0
    0.0000    0.0000    0.0000 C   0  0  0  0  0  0  0  0  0  0  0  0
    0.0000    0.0000    0.0000 C   0  0  0  0  0  0  0  0  0  0  0  0
    0.0000    0.0000    0.0000 C   0  0  0  0  0  0  0  0  0  0  0  0
    0.0000    0.0000    0.0000 C   0  0  0  0  0  0  0  0  0  0  0  0
    0.0000    0.0000    0.0000 C   0  0  0  0  0  0  0  0  0  0  0  0
    0.0000    0.0000    0.0000 C   0  0  0  0  0  0  0  0  0  0  0  0
    0.0000    0.0000    0.0000 C   0  0  0  0  0  0  0  0  0  0  0  0
    0.0000    0.0000    0.0000 C   0  0  0  0  0  0  0  0  0  0  0  0
    0.0000    0.0000    0.0000 Cl  0  0  0  0  0  0  0  0  0  0  0  0
    0.0000    0.0000    0.0000 C   0  0  0  0  0  0  0  0  0  0  0  0
    0.0000    0.0000    0.0000 C   0  0  0  0  0  0  0  0  0  0  0  0
  1  2  1  0
  2  3  1  0
  3  4  2  0
  4  5  1  0
  5  6  2  0
  6  7  1  0
  7  8  1  0
  8  9  1  0
  9 10  1  0
  9 11  1  0
 11 12  1  0
 12 13  1  0
 13 14  1  0
 14 15  1  0
 15 16  1  0
 16 17  2  0
  9 18  1  0
 18 19  2  0
 19 20  1  0
 20 21  2  0
 21 22  1  0
 21 23  1  0
 23 24  2  0
 17  3  1  0
 16  6  1  0
 13  7  1  0
 24 18  1  0
M  END
>  <pIC50>  (397) 
6.0

>  <ChEMBL_ID>  (397) 
CHEMBL2335738

>  <document_journal>  (397) 
Bioorg. Med. Chem. Lett.

>  <bao_endpoint>  (397) 
BAO_0000190

>  <potential_duplicate>  (397) 
False

>  <uo_units>  (397) 
UO_0000065

>  <canonical_smiles>  (397) 
COc1ccc2[C@H]3C[C@](O)(CCN3CCc2c1)c4ccc(Cl)cc4

>  <parent_molecule_chembl_id>  (397) 
CHEMBL2335738

>  <assay_type>  (397) 
F

>  <src_id>  (397) 
1

>  <ligand_efficiency>  (397) 
None

>  <standard_flag>  (397) 
True

>  <molecule_chembl_id>  (397) 
CHEMBL2335738

>  <target_organism>  (397) 
Homo sapiens

>  <standard_units>  (397) 
nM

>  <record_id>  (397) 
1870445

>  <document_chembl_id>  (397) 
CHEMBL2331372

>  <bao_format>  (397) 
BAO_0000219

>  <data_validity_description>  (397) 
None

>  <activity_id>  (397) 
12707028

>  <standard_type>  (397) 
IC50

>  <target_chembl_id>  (397) 
CHEMBL217

>  <data_validity_comment>  (397) 
None

>  <published_value>  (397) 
1010

>  <document_year>  (397) 
2013

>  <target_pref_name>  (397) 
Dopamine D2 receptor

>  <assay_chembl_id>  (397) 
CHEMBL2346209

>  <standard_relation>  (397) 
=

>  <assay_description>  (397) 
Antagonist activity at dopamine D2 receptor (unknown origin) transfected in CHO cell membranes assessed as inhibition of forskolin-stimulated cAMP level after 10 mins by flash plate assay in presence of dopamine

>  <published_relation>  (397) 
=

>  <standard_value>  (397) 
1010

>  <qudt_units>  (397) 
http://www.openphacts.org/units/Nanomolar

>  <target_tax_id>  (397) 
9606

>  <bao_label>  (397) 
cell-based format

>  <published_units>  (397) 
nM

>  <pchembl_value>  (397) 
6

>  <published_type>  (397) 
IC50

>  <activity_comment>  (397) 
None

$$$$

     RDKit          

 25 28  0  0  0  0  0  0  0  0999 V2000
    0.0000    0.0000    0.0000 C   0  0  0  0  0  0  0  0  0  0  0  0
    0.0000    0.0000    0.0000 O   0  0  0  0  0  0  0  0  0  0  0  0
    0.0000    0.0000    0.0000 C   0  0  0  0  0  0  0  0  0  0  0  0
    0.0000    0.0000    0.0000 C   0  0  0  0  0  0  0  0  0  0  0  0
    0.0000    0.0000    0.0000 C   0  0  0  0  0  0  0  0  0  0  0  0
    0.0000    0.0000    0.0000 C   0  0  0  0  0  0  0  0  0  0  0  0
    0.0000    0.0000    0.0000 C   0  0  0  0  0  0  0  0  0  0  0  0
    0.0000    0.0000    0.0000 N   0  0  0  0  0  0  0  0  0  0  0  0
    0.0000    0.0000    0.0000 C   0  0  0  0  0  0  0  0  0  0  0  0
    0.0000    0.0000    0.0000 C   0  0  0  0  0  0  0  0  0  0  0  0
    0.0000    0.0000    0.0000 C   0  0  0  0  0  0  0  0  0  0  0  0
    0.0000    0.0000    0.0000 O   0  0  0  0  0  0  0  0  0  0  0  0
    0.0000    0.0000    0.0000 C   0  0  0  0  0  0  0  0  0  0  0  0
    0.0000    0.0000    0.0000 C   0  0  0  0  0  0  0  0  0  0  0  0
    0.0000    0.0000    0.0000 C   0  0  0  0  0  0  0  0  0  0  0  0
    0.0000    0.0000    0.0000 C   0  0  0  0  0  0  0  0  0  0  0  0
    0.0000    0.0000    0.0000 C   0  0  0  0  0  0  0  0  0  0  0  0
    0.0000    0.0000    0.0000 O   0  0  0  0  0  0  0  0  0  0  0  0
    0.0000    0.0000    0.0000 C   0  0  0  0  0  0  0  0  0  0  0  0
    0.0000    0.0000    0.0000 C   0  0  0  0  0  0  0  0  0  0  0  0
    0.0000    0.0000    0.0000 C   0  0  0  0  0  0  0  0  0  0  0  0
    0.0000    0.0000    0.0000 C   0  0  0  0  0  0  0  0  0  0  0  0
    0.0000    0.0000    0.0000 Cl  0  0  0  0  0  0  0  0  0  0  0  0
    0.0000    0.0000    0.0000 C   0  0  0  0  0  0  0  0  0  0  0  0
    0.0000    0.0000    0.0000 C   0  0  0  0  0  0  0  0  0  0  0  0
  1  2  1  0
  2  3  1  0
  3  4  2  0
  4  5  1  0
  5  6  1  0
  6  7  1  0
  7  8  1  0
  8  9  1  0
  9 10  1  0
 10 11  1  0
 11 12  1  0
 11 13  1  0
 13 14  1  0
 14 15  1  0
 15 16  1  0
 16 17  2  0
 17 18  1  0
 11 19  1  0
 19 20  2  0
 20 21  1  0
 21 22  2  0
 22 23  1  0
 22 24  1  0
 24 25  2  0
 17  3  1  0
 15  5  2  0
 14  8  1  0
 25 19  1  0
M  END
>  <pIC50>  (398) 
6.42

>  <ChEMBL_ID>  (398) 
CHEMBL2335741

>  <document_journal>  (398) 
Bioorg. Med. Chem. Lett.

>  <bao_endpoint>  (398) 
BAO_0000190

>  <potential_duplicate>  (398) 
False

>  <uo_units>  (398) 
UO_0000065

>  <canonical_smiles>  (398) 
COc1cc2CCN3CC[C@](O)(C[C@@H]3c2cc1O)c4ccc(Cl)cc4

>  <parent_molecule_chembl_id>  (398) 
CHEMBL2335741

>  <assay_type>  (398) 
F

>  <src_id>  (398) 
1

>  <ligand_efficiency>  (398) 
None

>  <standard_flag>  (398) 
True

>  <molecule_chembl_id>  (398) 
CHEMBL2335741

>  <target_organism>  (398) 
Homo sapiens

>  <standard_units>  (398) 
nM

>  <record_id>  (398) 
1870448

>  <document_chembl_id>  (398) 
CHEMBL2331372

>  <bao_format>  (398) 
BAO_0000219

>  <data_validity_description>  (398) 
None

>  <activity_id>  (398) 
12707030

>  <standard_type>  (398) 
IC50

>  <target_chembl_id>  (398) 
CHEMBL217

>  <data_validity_comment>  (398) 
None

>  <published_value>  (398) 
380

>  <document_year>  (398) 
2013

>  <target_pref_name>  (398) 
Dopamine D2 receptor

>  <assay_chembl_id>  (398) 
CHEMBL2346209

>  <standard_relation>  (398) 
=

>  <assay_description>  (398) 
Antagonist activity at dopamine D2 receptor (unknown origin) transfected in CHO cell membranes assessed as inhibition of forskolin-stimulated cAMP level after 10 mins by flash plate assay in presence of dopamine

>  <published_relation>  (398) 
=

>  <standard_value>  (398) 
380

>  <qudt_units>  (398) 
http://www.openphacts.org/units/Nanomolar

>  <target_tax_id>  (398) 
9606

>  <bao_label>  (398) 
cell-based format

>  <published_units>  (398) 
nM

>  <pchembl_value>  (398) 
6.42

>  <published_type>  (398) 
IC50

>  <activity_comment>  (398) 
None

$$$$

     RDKit          

 24 27  0  0  0  0  0  0  0  0999 V2000
    0.0000    0.0000    0.0000 C   0  0  0  0  0  0  0  0  0  0  0  0
    0.0000    0.0000    0.0000 C   0  0  0  0  0  0  0  0  0  0  0  0
    0.0000    0.0000    0.0000 C   0  0  0  0  0  0  0  0  0  0  0  0
    0.0000    0.0000    0.0000 C   0  0  0  0  0  0  0  0  0  0  0  0
    0.0000    0.0000    0.0000 C   0  0  0  0  0  0  0  0  0  0  0  0
    0.0000    0.0000    0.0000 C   0  0  0  0  0  0  0  0  0  0  0  0
    0.0000    0.0000    0.0000 N   0  0  0  0  0  0  0  0  0  0  0  0
    0.0000    0.0000    0.0000 C   0  0  0  0  0  0  0  0  0  0  0  0
    0.0000    0.0000    0.0000 C   0  0  0  0  0  0  0  0  0  0  0  0
    0.0000    0.0000    0.0000 C   0  0  0  0  0  0  0  0  0  0  0  0
    0.0000    0.0000    0.0000 O   0  0  0  0  0  0  0  0  0  0  0  0
    0.0000    0.0000    0.0000 C   0  0  0  0  0  0  0  0  0  0  0  0
    0.0000    0.0000    0.0000 C   0  0  0  0  0  0  0  0  0  0  0  0
    0.0000    0.0000    0.0000 C   0  0  0  0  0  0  0  0  0  0  0  0
    0.0000    0.0000    0.0000 C   0  0  0  0  0  0  0  0  0  0  0  0
    0.0000    0.0000    0.0000 C   0  0  0  0  0  0  0  0  0  0  0  0
    0.0000    0.0000    0.0000 O   0  0  0  0  0  0  0  0  0  0  0  0
    0.0000    0.0000    0.0000 C   0  0  0  0  0  0  0  0  0  0  0  0
    0.0000    0.0000    0.0000 C   0  0  0  0  0  0  0  0  0  0  0  0
    0.0000    0.0000    0.0000 C   0  0  0  0  0  0  0  0  0  0  0  0
    0.0000    0.0000    0.0000 C   0  0  0  0  0  0  0  0  0  0  0  0
    0.0000    0.0000    0.0000 Cl  0  0  0  0  0  0  0  0  0  0  0  0
    0.0000    0.0000    0.0000 C   0  0  0  0  0  0  0  0  0  0  0  0
    0.0000    0.0000    0.0000 C   0  0  0  0  0  0  0  0  0  0  0  0
  1  2  1  0
  2  3  2  0
  3  4  1  0
  4  5  1  0
  5  6  1  0
  6  7  1  0
  7  8  1  0
  8  9  1  0
  9 10  1  0
 10 11  1  0
 10 12  1  0
 12 13  1  0
 13 14  1  0
 14 15  1  0
 15 16  2  0
 16 17  1  0
 10 18  1  0
 18 19  2  0
 19 20  1  0
 20 21  2  0
 21 22  1  0
 21 23  1  0
 23 24  2  0
 16  2  1  0
 14  4  2  0
 13  7  1  0
 24 18  1  0
M  END
>  <pIC50>  (399) 
6.66

>  <ChEMBL_ID>  (399) 
CHEMBL2335737

>  <document_journal>  (399) 
Bioorg. Med. Chem. Lett.

>  <bao_endpoint>  (399) 
BAO_0000190

>  <potential_duplicate>  (399) 
False

>  <uo_units>  (399) 
UO_0000065

>  <canonical_smiles>  (399) 
Cc1cc2CCN3CC[C@@](O)(C[C@@H]3c2cc1O)c4ccc(Cl)cc4

>  <parent_molecule_chembl_id>  (399) 
CHEMBL2335737

>  <assay_type>  (399) 
F

>  <src_id>  (399) 
1

>  <ligand_efficiency>  (399) 
None

>  <standard_flag>  (399) 
True

>  <molecule_chembl_id>  (399) 
CHEMBL2335737

>  <target_organism>  (399) 
Homo sapiens

>  <standard_units>  (399) 
nM

>  <record_id>  (399) 
1870443

>  <document_chembl_id>  (399) 
CHEMBL2331372

>  <bao_format>  (399) 
BAO_0000219

>  <data_validity_description>  (399) 
None

>  <activity_id>  (399) 
12707033

>  <standard_type>  (399) 
IC50

>  <target_chembl_id>  (399) 
CHEMBL217

>  <data_validity_comment>  (399) 
None

>  <published_value>  (399) 
220

>  <document_year>  (399) 
2013

>  <target_pref_name>  (399) 
Dopamine D2 receptor

>  <assay_chembl_id>  (399) 
CHEMBL2346209

>  <standard_relation>  (399) 
=

>  <assay_description>  (399) 
Antagonist activity at dopamine D2 receptor (unknown origin) transfected in CHO cell membranes assessed as inhibition of forskolin-stimulated cAMP level after 10 mins by flash plate assay in presence of dopamine

>  <published_relation>  (399) 
=

>  <standard_value>  (399) 
220

>  <qudt_units>  (399) 
http://www.openphacts.org/units/Nanomolar

>  <target_tax_id>  (399) 
9606

>  <bao_label>  (399) 
cell-based format

>  <published_units>  (399) 
nM

>  <pchembl_value>  (399) 
6.66

>  <published_type>  (399) 
IC50

>  <activity_comment>  (399) 
None

$$$$

     RDKit          

 24 27  0  0  0  0  0  0  0  0999 V2000
    0.0000    0.0000    0.0000 C   0  0  0  0  0  0  0  0  0  0  0  0
    0.0000    0.0000    0.0000 C   0  0  0  0  0  0  0  0  0  0  0  0
    0.0000    0.0000    0.0000 C   0  0  0  0  0  0  0  0  0  0  0  0
    0.0000    0.0000    0.0000 C   0  0  0  0  0  0  0  0  0  0  0  0
    0.0000    0.0000    0.0000 C   0  0  0  0  0  0  0  0  0  0  0  0
    0.0000    0.0000    0.0000 C   0  0  0  0  0  0  0  0  0  0  0  0
    0.0000    0.0000    0.0000 N   0  0  0  0  0  0  0  0  0  0  0  0
    0.0000    0.0000    0.0000 C   0  0  0  0  0  0  0  0  0  0  0  0
    0.0000    0.0000    0.0000 C   0  0  0  0  0  0  0  0  0  0  0  0
    0.0000    0.0000    0.0000 C   0  0  0  0  0  0  0  0  0  0  0  0
    0.0000    0.0000    0.0000 O   0  0  0  0  0  0  0  0  0  0  0  0
    0.0000    0.0000    0.0000 C   0  0  0  0  0  0  0  0  0  0  0  0
    0.0000    0.0000    0.0000 C   0  0  0  0  0  0  0  0  0  0  0  0
    0.0000    0.0000    0.0000 C   0  0  0  0  0  0  0  0  0  0  0  0
    0.0000    0.0000    0.0000 C   0  0  0  0  0  0  0  0  0  0  0  0
    0.0000    0.0000    0.0000 C   0  0  0  0  0  0  0  0  0  0  0  0
    0.0000    0.0000    0.0000 O   0  0  0  0  0  0  0  0  0  0  0  0
    0.0000    0.0000    0.0000 C   0  0  0  0  0  0  0  0  0  0  0  0
    0.0000    0.0000    0.0000 C   0  0  0  0  0  0  0  0  0  0  0  0
    0.0000    0.0000    0.0000 C   0  0  0  0  0  0  0  0  0  0  0  0
    0.0000    0.0000    0.0000 C   0  0  0  0  0  0  0  0  0  0  0  0
    0.0000    0.0000    0.0000 Cl  0  0  0  0  0  0  0  0  0  0  0  0
    0.0000    0.0000    0.0000 C   0  0  0  0  0  0  0  0  0  0  0  0
    0.0000    0.0000    0.0000 C   0  0  0  0  0  0  0  0  0  0  0  0
  1  2  1  0
  2  3  2  0
  3  4  1  0
  4  5  1  0
  5  6  1  0
  6  7  1  0
  7  8  1  0
  8  9  1  0
  9 10  1  0
 10 11  1  0
 10 12  1  0
 12 13  1  0
 13 14  1  0
 14 15  1  0
 15 16  2  0
 16 17  1  0
 10 18  1  0
 18 19  2  0
 19 20  1  0
 20 21  2  0
 21 22  1  0
 21 23  1  0
 23 24  2  0
 16  2  1  0
 14  4  2  0
 13  7  1  0
 24 18  1  0
M  END
>  <pIC50>  (400) 
6.82

>  <ChEMBL_ID>  (400) 
CHEMBL2331599

>  <document_journal>  (400) 
Bioorg. Med. Chem. Lett.

>  <bao_endpoint>  (400) 
BAO_0000190

>  <potential_duplicate>  (400) 
False

>  <uo_units>  (400) 
UO_0000065

>  <canonical_smiles>  (400) 
Cc1cc2CCN3CC[C@](O)(C[C@@H]3c2cc1O)c4ccc(Cl)cc4

>  <parent_molecule_chembl_id>  (400) 
CHEMBL2331599

>  <assay_type>  (400) 
F

>  <src_id>  (400) 
1

>  <ligand_efficiency>  (400) 
None

>  <standard_flag>  (400) 
True

>  <molecule_chembl_id>  (400) 
CHEMBL2331599

>  <target_organism>  (400) 
Homo sapiens

>  <standard_units>  (400) 
nM

>  <record_id>  (400) 
1870444

>  <document_chembl_id>  (400) 
CHEMBL2331372

>  <bao_format>  (400) 
BAO_0000219

>  <data_validity_description>  (400) 
None

>  <activity_id>  (400) 
12707035

>  <standard_type>  (400) 
IC50

>  <target_chembl_id>  (400) 
CHEMBL217

>  <data_validity_comment>  (400) 
None

>  <published_value>  (400) 
150

>  <document_year>  (400) 
2013

>  <target_pref_name>  (400) 
Dopamine D2 receptor

>  <assay_chembl_id>  (400) 
CHEMBL2346209

>  <standard_relation>  (400) 
=

>  <assay_description>  (400) 
Antagonist activity at dopamine D2 receptor (unknown origin) transfected in CHO cell membranes assessed as inhibition of forskolin-stimulated cAMP level after 10 mins by flash plate assay in presence of dopamine

>  <published_relation>  (400) 
=

>  <standard_value>  (400) 
150

>  <qudt_units>  (400) 
http://www.openphacts.org/units/Nanomolar

>  <target_tax_id>  (400) 
9606

>  <bao_label>  (400) 
cell-based format

>  <published_units>  (400) 
nM

>  <pchembl_value>  (400) 
6.82

>  <published_type>  (400) 
IC50

>  <activity_comment>  (400) 
None

$$$$

     RDKit          

 29 32  0  0  0  0  0  0  0  0999 V2000
    0.0000    0.0000    0.0000 C   0  0  0  0  0  0  0  0  0  0  0  0
    0.0000    0.0000    0.0000 O   0  0  0  0  0  0  0  0  0  0  0  0
    0.0000    0.0000    0.0000 C   0  0  0  0  0  0  0  0  0  0  0  0
    0.0000    0.0000    0.0000 C   0  0  0  0  0  0  0  0  0  0  0  0
    0.0000    0.0000    0.0000 C   0  0  0  0  0  0  0  0  0  0  0  0
    0.0000    0.0000    0.0000 C   0  0  0  0  0  0  0  0  0  0  0  0
    0.0000    0.0000    0.0000 C   0  0  0  0  0  0  0  0  0  0  0  0
    0.0000    0.0000    0.0000 N   0  0  0  0  0  0  0  0  0  0  0  0
    0.0000    0.0000    0.0000 C   0  0  0  0  0  0  0  0  0  0  0  0
    0.0000    0.0000    0.0000 C   0  0  0  0  0  0  0  0  0  0  0  0
    0.0000    0.0000    0.0000 C   0  0  0  0  0  0  0  0  0  0  0  0
    0.0000    0.0000    0.0000 O   0  0  0  0  0  0  0  0  0  0  0  0
    0.0000    0.0000    0.0000 C   0  0  0  0  0  0  0  0  0  0  0  0
    0.0000    0.0000    0.0000 C   0  0  0  0  0  0  0  0  0  0  0  0
    0.0000    0.0000    0.0000 C   0  0  0  0  0  0  0  0  0  0  0  0
    0.0000    0.0000    0.0000 C   0  0  0  0  0  0  0  0  0  0  0  0
    0.0000    0.0000    0.0000 C   0  0  0  0  0  0  0  0  0  0  0  0
    0.0000    0.0000    0.0000 O   0  0  0  0  0  0  0  0  0  0  0  0
    0.0000    0.0000    0.0000 C   0  0  0  0  0  0  0  0  0  0  0  0
    0.0000    0.0000    0.0000 C   0  0  0  0  0  0  0  0  0  0  0  0
    0.0000    0.0000    0.0000 C   0  0  0  0  0  0  0  0  0  0  0  0
    0.0000    0.0000    0.0000 C   0  0  0  0  0  0  0  0  0  0  0  0
    0.0000    0.0000    0.0000 O   0  0  0  0  0  0  0  0  0  0  0  0
    0.0000    0.0000    0.0000 C   0  0  0  0  0  0  0  0  0  0  0  0
    0.0000    0.0000    0.0000 F   0  0  0  0  0  0  0  0  0  0  0  0
    0.0000    0.0000    0.0000 F   0  0  0  0  0  0  0  0  0  0  0  0
    0.0000    0.0000    0.0000 F   0  0  0  0  0  0  0  0  0  0  0  0
    0.0000    0.0000    0.0000 C   0  0  0  0  0  0  0  0  0  0  0  0
    0.0000    0.0000    0.0000 C   0  0  0  0  0  0  0  0  0  0  0  0
  1  2  1  0
  2  3  1  0
  3  4  2  0
  4  5  1  0
  5  6  1  0
  6  7  1  0
  7  8  1  0
  8  9  1  0
  9 10  1  0
 10 11  1  0
 11 12  1  0
 11 13  1  0
 13 14  1  0
 14 15  1  0
 15 16  1  0
 16 17  2  0
 17 18  1  0
 11 19  1  0
 19 20  2  0
 20 21  1  0
 21 22  2  0
 22 23  1  0
 23 24  1  0
 24 25  1  0
 24 26  1  0
 24 27  1  0
 22 28  1  0
 28 29  2  0
 17  3  1  0
 15  5  2  0
 14  8  1  0
 29 19  1  0
M  END
>  <pIC50>  (401) 
8.22

>  <ChEMBL_ID>  (401) 
CHEMBL2335736

>  <document_journal>  (401) 
Bioorg. Med. Chem. Lett.

>  <bao_endpoint>  (401) 
BAO_0000190

>  <potential_duplicate>  (401) 
False

>  <uo_units>  (401) 
UO_0000065

>  <canonical_smiles>  (401) 
COc1cc2CCN3CC[C@@](O)(C[C@@H]3c2cc1O)c4ccc(OC(F)(F)F)cc4

>  <parent_molecule_chembl_id>  (401) 
CHEMBL2335736

>  <assay_type>  (401) 
F

>  <src_id>  (401) 
1

>  <ligand_efficiency>  (401) 
None

>  <standard_flag>  (401) 
True

>  <molecule_chembl_id>  (401) 
CHEMBL2335736

>  <target_organism>  (401) 
Homo sapiens

>  <standard_units>  (401) 
nM

>  <record_id>  (401) 
1870442

>  <document_chembl_id>  (401) 
CHEMBL2331372

>  <bao_format>  (401) 
BAO_0000219

>  <data_validity_description>  (401) 
None

>  <activity_id>  (401) 
12707057

>  <standard_type>  (401) 
IC50

>  <target_chembl_id>  (401) 
CHEMBL217

>  <data_validity_comment>  (401) 
None

>  <published_value>  (401) 
6

>  <document_year>  (401) 
2013

>  <target_pref_name>  (401) 
Dopamine D2 receptor

>  <assay_chembl_id>  (401) 
CHEMBL2346209

>  <standard_relation>  (401) 
=

>  <assay_description>  (401) 
Antagonist activity at dopamine D2 receptor (unknown origin) transfected in CHO cell membranes assessed as inhibition of forskolin-stimulated cAMP level after 10 mins by flash plate assay in presence of dopamine

>  <published_relation>  (401) 
=

>  <standard_value>  (401) 
6

>  <qudt_units>  (401) 
http://www.openphacts.org/units/Nanomolar

>  <target_tax_id>  (401) 
9606

>  <bao_label>  (401) 
cell-based format

>  <published_units>  (401) 
nM

>  <pchembl_value>  (401) 
8.22

>  <published_type>  (401) 
IC50

>  <activity_comment>  (401) 
None

$$$$

     RDKit          

 27 30  0  0  0  0  0  0  0  0999 V2000
    0.0000    0.0000    0.0000 O   0  0  0  0  0  0  0  0  0  0  0  0
    0.0000    0.0000    0.0000 C   0  0  0  0  0  0  0  0  0  0  0  0
    0.0000    0.0000    0.0000 C   0  0  0  0  0  0  0  0  0  0  0  0
    0.0000    0.0000    0.0000 N   0  0  0  0  0  0  0  0  0  0  0  0
    0.0000    0.0000    0.0000 C   0  0  0  0  0  0  0  0  0  0  0  0
    0.0000    0.0000    0.0000 C   0  0  0  0  0  0  0  0  0  0  0  0
    0.0000    0.0000    0.0000 N   0  0  0  0  0  0  0  0  0  0  0  0
    0.0000    0.0000    0.0000 C   0  0  0  0  0  0  0  0  0  0  0  0
    0.0000    0.0000    0.0000 C   0  0  0  0  0  0  0  0  0  0  0  0
    0.0000    0.0000    0.0000 C   0  0  0  0  0  0  0  0  0  0  0  0
    0.0000    0.0000    0.0000 N   0  0  0  0  0  0  0  0  0  0  0  0
    0.0000    0.0000    0.0000 C   0  0  0  0  0  0  0  0  0  0  0  0
    0.0000    0.0000    0.0000 C   0  0  0  0  0  0  0  0  0  0  0  0
    0.0000    0.0000    0.0000 C   0  0  0  0  0  0  0  0  0  0  0  0
    0.0000    0.0000    0.0000 C   0  0  0  0  0  0  0  0  0  0  0  0
    0.0000    0.0000    0.0000 C   0  0  0  0  0  0  0  0  0  0  0  0
    0.0000    0.0000    0.0000 C   0  0  0  0  0  0  0  0  0  0  0  0
    0.0000    0.0000    0.0000 S   0  0  0  0  0  0  0  0  0  0  0  0
    0.0000    0.0000    0.0000 C   0  0  0  0  0  0  0  0  0  0  0  0
    0.0000    0.0000    0.0000 C   0  0  0  0  0  0  0  0  0  0  0  0
    0.0000    0.0000    0.0000 C   0  0  0  0  0  0  0  0  0  0  0  0
    0.0000    0.0000    0.0000 C   0  0  0  0  0  0  0  0  0  0  0  0
    0.0000    0.0000    0.0000 Cl  0  0  0  0  0  0  0  0  0  0  0  0
    0.0000    0.0000    0.0000 C   0  0  0  0  0  0  0  0  0  0  0  0
    0.0000    0.0000    0.0000 C   0  0  0  0  0  0  0  0  0  0  0  0
    0.0000    0.0000    0.0000 C   0  0  0  0  0  0  0  0  0  0  0  0
    0.0000    0.0000    0.0000 C   0  0  0  0  0  0  0  0  0  0  0  0
  1  2  1  0
  2  3  1  0
  3  4  1  0
  4  5  1  0
  5  6  1  0
  6  7  1  0
  7  8  1  0
  8  9  1  0
  9 10  1  0
 10 11  1  0
 11 12  1  0
 12 13  2  0
 13 14  1  0
 14 15  2  0
 15 16  1  0
 16 17  2  0
 17 18  1  0
 18 19  1  0
 19 20  2  0
 20 21  1  0
 21 22  2  0
 22 23  1  0
 22 24  1  0
 24 25  2  0
  7 26  1  0
 26 27  1  0
 27  4  1  0
 25 11  1  0
 17 12  1  0
 25 19  1  0
M  END
>  <pIC50>  (402) 
9.52

>  <ChEMBL_ID>  (402) 
CHEMBL567

>  <document_journal>  (402) 
J. Med. Chem.

>  <bao_endpoint>  (402) 
BAO_0000190

>  <potential_duplicate>  (402) 
False

>  <uo_units>  (402) 
UO_0000065

>  <canonical_smiles>  (402) 
OCCN1CCN(CCCN2c3ccccc3Sc4ccc(Cl)cc24)CC1

>  <parent_molecule_chembl_id>  (402) 
CHEMBL567

>  <assay_type>  (402) 
B

>  <src_id>  (402) 
1

>  <ligand_efficiency>  (402) 
{u'le': u'0.48', u'bei': u'23.57', u'sei': u'17.24', u'lle': u'5.36'}

>  <standard_flag>  (402) 
True

>  <molecule_chembl_id>  (402) 
CHEMBL567

>  <target_organism>  (402) 
Homo sapiens

>  <standard_units>  (402) 
nM

>  <record_id>  (402) 
1897843

>  <document_chembl_id>  (402) 
CHEMBL2385071

>  <bao_format>  (402) 
BAO_0000219

>  <data_validity_description>  (402) 
None

>  <activity_id>  (402) 
13317546

>  <standard_type>  (402) 
IC50

>  <target_chembl_id>  (402) 
CHEMBL217

>  <data_validity_comment>  (402) 
None

>  <published_value>  (402) 
0.3

>  <document_year>  (402) 
2013

>  <target_pref_name>  (402) 
Dopamine D2 receptor

>  <assay_chembl_id>  (402) 
CHEMBL2390217

>  <standard_relation>  (402) 
=

>  <assay_description>  (402) 
Antagonist activity at dopamine D2 receptor (unknown origin) expressed in CHOK1 cells coexpressing Galpha15 assessed as inhibition of agonist-induced response incubated for 60 mins in incubator followed by 15 mins at room temperature by FLIPR assay

>  <published_relation>  (402) 
=

>  <standard_value>  (402) 
0.3

>  <qudt_units>  (402) 
http://www.openphacts.org/units/Nanomolar

>  <target_tax_id>  (402) 
9606

>  <bao_label>  (402) 
cell-based format

>  <published_units>  (402) 
nM

>  <pchembl_value>  (402) 
9.52

>  <published_type>  (402) 
IC50

>  <activity_comment>  (402) 
None

$$$$

     RDKit          

 34 38  0  0  0  0  0  0  0  0999 V2000
    0.0000    0.0000    0.0000 C   0  0  0  0  0  0  0  0  0  0  0  0
    0.0000    0.0000    0.0000 C   0  0  0  0  0  0  0  0  0  0  0  0
    0.0000    0.0000    0.0000 C   0  0  0  0  0  0  0  0  0  0  0  0
    0.0000    0.0000    0.0000 C   0  0  0  0  0  0  0  0  0  0  0  0
    0.0000    0.0000    0.0000 O   0  0  0  0  0  0  0  0  0  0  0  0
    0.0000    0.0000    0.0000 O   0  0  0  0  0  0  0  0  0  0  0  0
    0.0000    0.0000    0.0000 C   0  0  0  0  0  0  0  0  0  0  0  0
    0.0000    0.0000    0.0000 C   0  0  0  0  0  0  0  0  0  0  0  0
    0.0000    0.0000    0.0000 Cl  0  0  0  0  0  0  0  0  0  0  0  0
    0.0000    0.0000    0.0000 C   0  0  0  0  0  0  0  0  0  0  0  0
    0.0000    0.0000    0.0000 O   0  0  0  0  0  0  0  0  0  0  0  0
    0.0000    0.0000    0.0000 C   0  0  0  0  0  0  0  0  0  0  0  0
    0.0000    0.0000    0.0000 C   0  0  0  0  0  0  0  0  0  0  0  0
    0.0000    0.0000    0.0000 C   0  0  0  0  0  0  0  0  0  0  0  0
    0.0000    0.0000    0.0000 C   0  0  0  0  0  0  0  0  0  0  0  0
    0.0000    0.0000    0.0000 N   0  0  0  0  0  0  0  0  0  0  0  0
    0.0000    0.0000    0.0000 C   0  0  0  0  0  0  0  0  0  0  0  0
    0.0000    0.0000    0.0000 C   0  0  0  0  0  0  0  0  0  0  0  0
    0.0000    0.0000    0.0000 C   0  0  0  0  0  0  0  0  0  0  0  0
    0.0000    0.0000    0.0000 C   0  0  0  0  0  0  0  0  0  0  0  0
    0.0000    0.0000    0.0000 C   0  0  0  0  0  0  0  0  0  0  0  0
    0.0000    0.0000    0.0000 C   0  0  0  0  0  0  0  0  0  0  0  0
    0.0000    0.0000    0.0000 N   0  0  0  0  0  0  0  0  0  0  0  0
    0.0000    0.0000    0.0000 O   0  0  0  0  0  0  0  0  0  0  0  0
    0.0000    0.0000    0.0000 C   0  0  0  0  0  0  0  0  0  0  0  0
    0.0000    0.0000    0.0000 C   0  0  0  0  0  0  0  0  0  0  0  0
    0.0000    0.0000    0.0000 C   0  0  0  0  0  0  0  0  0  0  0  0
    0.0000    0.0000    0.0000 F   0  0  0  0  0  0  0  0  0  0  0  0
    0.0000    0.0000    0.0000 C   0  0  0  0  0  0  0  0  0  0  0  0
    0.0000    0.0000    0.0000 C   0  0  0  0  0  0  0  0  0  0  0  0
    0.0000    0.0000    0.0000 C   0  0  0  0  0  0  0  0  0  0  0  0
    0.0000    0.0000    0.0000 C   0  0  0  0  0  0  0  0  0  0  0  0
    0.0000    0.0000    0.0000 C   0  0  0  0  0  0  0  0  0  0  0  0
    0.0000    0.0000    0.0000 C   0  0  0  0  0  0  0  0  0  0  0  0
  1  2  1  0
  2  3  2  0
  3  4  1  0
  4  5  2  0
  4  6  1  0
  6  7  1  0
  7  8  2  0
  8  9  1  0
  8 10  1  0
 10 11  1  0
 11 12  1  0
 12 13  1  0
 13 14  1  0
 14 15  1  0
 15 16  1  0
 16 17  1  0
 17 18  1  0
 18 19  1  0
 19 20  1  0
 20 21  1  0
 19 22  1  0
 22 23  2  0
 23 24  1  0
 24 25  1  0
 25 26  2  0
 26 27  1  0
 27 28  1  0
 27 29  2  0
 29 30  1  0
 30 31  2  0
 10 32  2  0
 32 33  1  0
 33 34  2  0
 34  2  1  0
 34  7  1  0
 21 16  1  0
 31 22  1  0
 31 25  1  0
M  END
>  <pIC50>  (403) 
7.58

>  <ChEMBL_ID>  (403) 
CHEMBL2387229

>  <document_journal>  (403) 
J. Med. Chem.

>  <bao_endpoint>  (403) 
BAO_0000190

>  <potential_duplicate>  (403) 
False

>  <uo_units>  (403) 
UO_0000065

>  <canonical_smiles>  (403) 
CC1=CC(=O)Oc2c(Cl)c(OCCCCN3CCC(CC3)c4noc5cc(F)ccc45)ccc12

>  <parent_molecule_chembl_id>  (403) 
CHEMBL2387229

>  <assay_type>  (403) 
B

>  <src_id>  (403) 
1

>  <ligand_efficiency>  (403) 
{u'le': u'0.3', u'bei': u'15.63', u'sei': u'11.7', u'lle': u'1.53'}

>  <standard_flag>  (403) 
True

>  <molecule_chembl_id>  (403) 
CHEMBL2387229

>  <target_organism>  (403) 
Homo sapiens

>  <standard_units>  (403) 
nM

>  <record_id>  (403) 
1897828

>  <document_chembl_id>  (403) 
CHEMBL2385071

>  <bao_format>  (403) 
BAO_0000219

>  <data_validity_description>  (403) 
None

>  <activity_id>  (403) 
13317547

>  <standard_type>  (403) 
IC50

>  <target_chembl_id>  (403) 
CHEMBL217

>  <data_validity_comment>  (403) 
None

>  <published_value>  (403) 
26.3

>  <document_year>  (403) 
2013

>  <target_pref_name>  (403) 
Dopamine D2 receptor

>  <assay_chembl_id>  (403) 
CHEMBL2390217

>  <standard_relation>  (403) 
=

>  <assay_description>  (403) 
Antagonist activity at dopamine D2 receptor (unknown origin) expressed in CHOK1 cells coexpressing Galpha15 assessed as inhibition of agonist-induced response incubated for 60 mins in incubator followed by 15 mins at room temperature by FLIPR assay

>  <published_relation>  (403) 
=

>  <standard_value>  (403) 
26.3

>  <qudt_units>  (403) 
http://www.openphacts.org/units/Nanomolar

>  <target_tax_id>  (403) 
9606

>  <bao_label>  (403) 
cell-based format

>  <published_units>  (403) 
nM

>  <pchembl_value>  (403) 
7.58

>  <published_type>  (403) 
IC50

>  <activity_comment>  (403) 
None

$$$$

     RDKit          

 27 30  0  0  0  0  0  0  0  0999 V2000
    0.0000    0.0000    0.0000 C   0  0  0  0  0  0  0  0  0  0  0  0
    0.0000    0.0000    0.0000 O   0  0  0  0  0  0  0  0  0  0  0  0
    0.0000    0.0000    0.0000 C   0  0  0  0  0  0  0  0  0  0  0  0
    0.0000    0.0000    0.0000 C   0  0  0  0  0  0  0  0  0  0  0  0
    0.0000    0.0000    0.0000 C   0  0  0  0  0  0  0  0  0  0  0  0
    0.0000    0.0000    0.0000 C   0  0  0  0  0  0  0  0  0  0  0  0
    0.0000    0.0000    0.0000 C   0  0  0  0  0  0  0  0  0  0  0  0
    0.0000    0.0000    0.0000 N   0  0  0  0  0  0  0  0  0  0  0  0
    0.0000    0.0000    0.0000 C   0  0  0  0  0  0  0  0  0  0  0  0
    0.0000    0.0000    0.0000 N   0  0  0  0  0  0  0  0  0  0  0  0
    0.0000    0.0000    0.0000 C   0  0  0  0  0  0  0  0  0  0  0  0
    0.0000    0.0000    0.0000 C   0  0  0  0  0  0  0  0  0  0  0  0
    0.0000    0.0000    0.0000 C   0  0  0  0  0  0  0  0  0  0  0  0
    0.0000    0.0000    0.0000 C   0  0  0  0  0  0  0  0  0  0  0  0
    0.0000    0.0000    0.0000 C   0  0  0  0  0  0  0  0  0  0  0  0
    0.0000    0.0000    0.0000 C   0  0  0  0  0  0  0  0  0  0  0  0
    0.0000    0.0000    0.0000 C   0  0  0  0  0  0  0  0  0  0  0  0
    0.0000    0.0000    0.0000 C   0  0  0  0  0  0  0  0  0  0  0  0
    0.0000    0.0000    0.0000 N   0  0  0  0  0  0  0  0  0  0  0  0
    0.0000    0.0000    0.0000 C   0  0  0  0  0  0  0  0  0  0  0  0
    0.0000    0.0000    0.0000 C   0  0  0  0  0  0  0  0  0  0  0  0
    0.0000    0.0000    0.0000 C   0  0  0  0  0  0  0  0  0  0  0  0
    0.0000    0.0000    0.0000 N   0  0  0  0  0  0  0  0  0  0  0  0
    0.0000    0.0000    0.0000 C   0  0  0  0  0  0  0  0  0  0  0  0
    0.0000    0.0000    0.0000 C   0  0  0  0  0  0  0  0  0  0  0  0
    0.0000    0.0000    0.0000 C   0  0  0  0  0  0  0  0  0  0  0  0
    0.0000    0.0000    0.0000 C   0  0  0  0  0  0  0  0  0  0  0  0
  1  2  1  0
  2  3  1  0
  3  4  2  0
  4  5  1  0
  5  6  2  0
  6  7  1  0
  7  8  1  0
  8  9  1  0
  9 10  2  0
 10 11  1  0
 11 12  1  0
 12 13  1  0
 13 14  2  0
 14 15  1  0
 15 16  2  0
 16 17  1  0
 17 18  2  0
 11 19  2  0
 19 20  1  0
 20 21  1  0
 21 22  1  0
 22 23  1  0
 23 24  1  0
 24 25  1  0
 25 26  1  0
  7 27  2  0
 27  3  1  0
 26  9  1  0
 18 13  1  0
 26 20  2  0
M  END
>  <pIC50>  (404) 
6.79

>  <ChEMBL_ID>  (404) 
CHEMBL2393246

>  <document_journal>  (404) 
Eur. J. Med. Chem.

>  <bao_endpoint>  (404) 
BAO_0000190

>  <potential_duplicate>  (404) 
False

>  <uo_units>  (404) 
UO_0000065

>  <canonical_smiles>  (404) 
Cl.COc1cccc(Nc2nc(Cc3ccccc3)nc4CCNCCc24)c1

>  <parent_molecule_chembl_id>  (404) 
CHEMBL3040325

>  <assay_type>  (404) 
B

>  <src_id>  (404) 
1

>  <ligand_efficiency>  (404) 
{u'le': u'0.34', u'bei': u'18.83', u'sei': u'11.49', u'lle': u'2.94'}

>  <standard_flag>  (404) 
True

>  <molecule_chembl_id>  (404) 
CHEMBL2393246

>  <target_organism>  (404) 
Homo sapiens

>  <standard_units>  (404) 
nM

>  <record_id>  (404) 
1901469

>  <document_chembl_id>  (404) 
CHEMBL2390866

>  <bao_format>  (404) 
BAO_0000357

>  <data_validity_description>  (404) 
None

>  <activity_id>  (404) 
13334286

>  <standard_type>  (404) 
IC50

>  <target_chembl_id>  (404) 
CHEMBL217

>  <data_validity_comment>  (404) 
None

>  <published_value>  (404) 
162.8

>  <document_year>  (404) 
2013

>  <target_pref_name>  (404) 
Dopamine D2 receptor

>  <assay_chembl_id>  (404) 
CHEMBL2396124

>  <standard_relation>  (404) 
=

>  <assay_description>  (404) 
Displacement of [3H]-methylspiperone from dopamine D2L receptor (unknown origin) after 60 mins

>  <published_relation>  (404) 
=

>  <standard_value>  (404) 
162.8

>  <qudt_units>  (404) 
http://www.openphacts.org/units/Nanomolar

>  <target_tax_id>  (404) 
9606

>  <bao_label>  (404) 
single protein format

>  <published_units>  (404) 
nM

>  <pchembl_value>  (404) 
6.79

>  <published_type>  (404) 
IC50

>  <activity_comment>  (404) 
None

$$$$

     RDKit          

 25 28  0  0  0  0  0  0  0  0999 V2000
    0.0000    0.0000    0.0000 C   0  0  0  0  0  0  0  0  0  0  0  0
    0.0000    0.0000    0.0000 C   0  0  0  0  0  0  0  0  0  0  0  0
    0.0000    0.0000    0.0000 C   0  0  0  0  0  0  0  0  0  0  0  0
    0.0000    0.0000    0.0000 C   0  0  0  0  0  0  0  0  0  0  0  0
    0.0000    0.0000    0.0000 C   0  0  0  0  0  0  0  0  0  0  0  0
    0.0000    0.0000    0.0000 C   0  0  0  0  0  0  0  0  0  0  0  0
    0.0000    0.0000    0.0000 C   0  0  0  0  0  0  0  0  0  0  0  0
    0.0000    0.0000    0.0000 C   0  0  0  0  0  0  0  0  0  0  0  0
    0.0000    0.0000    0.0000 N   0  0  0  0  0  0  0  0  0  0  0  0
    0.0000    0.0000    0.0000 C   0  0  0  0  0  0  0  0  0  0  0  0
    0.0000    0.0000    0.0000 C   0  0  0  0  0  0  0  0  0  0  0  0
    0.0000    0.0000    0.0000 C   0  0  0  0  0  0  0  0  0  0  0  0
    0.0000    0.0000    0.0000 N   0  0  0  0  0  0  0  0  0  0  0  0
    0.0000    0.0000    0.0000 C   0  0  0  0  0  0  0  0  0  0  0  0
    0.0000    0.0000    0.0000 C   0  0  0  0  0  0  0  0  0  0  0  0
    0.0000    0.0000    0.0000 C   0  0  0  0  0  0  0  0  0  0  0  0
    0.0000    0.0000    0.0000 C   0  0  0  0  0  0  0  0  0  0  0  0
    0.0000    0.0000    0.0000 N   0  0  0  0  0  0  0  0  0  0  0  0
    0.0000    0.0000    0.0000 C   0  0  0  0  0  0  0  0  0  0  0  0
    0.0000    0.0000    0.0000 C   0  0  0  0  0  0  0  0  0  0  0  0
    0.0000    0.0000    0.0000 C   0  0  0  0  0  0  0  0  0  0  0  0
    0.0000    0.0000    0.0000 C   0  0  0  0  0  0  0  0  0  0  0  0
    0.0000    0.0000    0.0000 C   0  0  0  0  0  0  0  0  0  0  0  0
    0.0000    0.0000    0.0000 C   0  0  0  0  0  0  0  0  0  0  0  0
    0.0000    0.0000    0.0000 N   0  0  0  0  0  0  0  0  0  0  0  0
  1  2  1  0
  2  3  2  0
  3  4  1  0
  4  5  2  0
  5  6  1  0
  6  7  2  0
  1  8  1  0
  8  9  2  0
  9 10  1  0
 10 11  1  0
 11 12  1  0
 12 13  1  0
 13 14  1  0
 14 15  1  0
 15 16  1  0
 16 17  1  0
 17 18  1  0
 18 19  1  0
 19 20  2  0
 20 21  1  0
 21 22  2  0
 22 23  1  0
 23 24  2  0
 17 25  2  0
  7  2  1  0
 25  8  1  0
 16 10  2  0
 24 19  1  0
M  END
>  <pIC50>  (405) 
6.83

>  <ChEMBL_ID>  (405) 
CHEMBL2393243

>  <document_journal>  (405) 
Eur. J. Med. Chem.

>  <bao_endpoint>  (405) 
BAO_0000190

>  <potential_duplicate>  (405) 
False

>  <uo_units>  (405) 
UO_0000065

>  <canonical_smiles>  (405) 
Cl.C(c1ccccc1)c2nc3CCNCCc3c(Nc4ccccc4)n2

>  <parent_molecule_chembl_id>  (405) 
CHEMBL3040324

>  <assay_type>  (405) 
B

>  <src_id>  (405) 
1

>  <ligand_efficiency>  (405) 
{u'le': u'0.37', u'bei': u'20.68', u'sei': u'13.71', u'lle': u'2.96'}

>  <standard_flag>  (405) 
True

>  <molecule_chembl_id>  (405) 
CHEMBL2393243

>  <target_organism>  (405) 
Homo sapiens

>  <standard_units>  (405) 
nM

>  <record_id>  (405) 
1901466

>  <document_chembl_id>  (405) 
CHEMBL2390866

>  <bao_format>  (405) 
BAO_0000357

>  <data_validity_description>  (405) 
None

>  <activity_id>  (405) 
13334289

>  <standard_type>  (405) 
IC50

>  <target_chembl_id>  (405) 
CHEMBL217

>  <data_validity_comment>  (405) 
None

>  <published_value>  (405) 
146.7

>  <document_year>  (405) 
2013

>  <target_pref_name>  (405) 
Dopamine D2 receptor

>  <assay_chembl_id>  (405) 
CHEMBL2396124

>  <standard_relation>  (405) 
=

>  <assay_description>  (405) 
Displacement of [3H]-methylspiperone from dopamine D2L receptor (unknown origin) after 60 mins

>  <published_relation>  (405) 
=

>  <standard_value>  (405) 
146.7

>  <qudt_units>  (405) 
http://www.openphacts.org/units/Nanomolar

>  <target_tax_id>  (405) 
9606

>  <bao_label>  (405) 
single protein format

>  <published_units>  (405) 
nM

>  <pchembl_value>  (405) 
6.83

>  <published_type>  (405) 
IC50

>  <activity_comment>  (405) 
None

$$$$

     RDKit          

 26 29  0  0  0  0  0  0  0  0999 V2000
    0.0000    0.0000    0.0000 Cl  0  0  0  0  0  0  0  0  0  0  0  0
    0.0000    0.0000    0.0000 C   0  0  0  0  0  0  0  0  0  0  0  0
    0.0000    0.0000    0.0000 C   0  0  0  0  0  0  0  0  0  0  0  0
    0.0000    0.0000    0.0000 C   0  0  0  0  0  0  0  0  0  0  0  0
    0.0000    0.0000    0.0000 C   0  0  0  0  0  0  0  0  0  0  0  0
    0.0000    0.0000    0.0000 C   0  0  0  0  0  0  0  0  0  0  0  0
    0.0000    0.0000    0.0000 N   0  0  0  0  0  0  0  0  0  0  0  0
    0.0000    0.0000    0.0000 C   0  0  0  0  0  0  0  0  0  0  0  0
    0.0000    0.0000    0.0000 N   0  0  0  0  0  0  0  0  0  0  0  0
    0.0000    0.0000    0.0000 C   0  0  0  0  0  0  0  0  0  0  0  0
    0.0000    0.0000    0.0000 C   0  0  0  0  0  0  0  0  0  0  0  0
    0.0000    0.0000    0.0000 C   0  0  0  0  0  0  0  0  0  0  0  0
    0.0000    0.0000    0.0000 C   0  0  0  0  0  0  0  0  0  0  0  0
    0.0000    0.0000    0.0000 C   0  0  0  0  0  0  0  0  0  0  0  0
    0.0000    0.0000    0.0000 C   0  0  0  0  0  0  0  0  0  0  0  0
    0.0000    0.0000    0.0000 C   0  0  0  0  0  0  0  0  0  0  0  0
    0.0000    0.0000    0.0000 C   0  0  0  0  0  0  0  0  0  0  0  0
    0.0000    0.0000    0.0000 N   0  0  0  0  0  0  0  0  0  0  0  0
    0.0000    0.0000    0.0000 C   0  0  0  0  0  0  0  0  0  0  0  0
    0.0000    0.0000    0.0000 C   0  0  0  0  0  0  0  0  0  0  0  0
    0.0000    0.0000    0.0000 C   0  0  0  0  0  0  0  0  0  0  0  0
    0.0000    0.0000    0.0000 N   0  0  0  0  0  0  0  0  0  0  0  0
    0.0000    0.0000    0.0000 C   0  0  0  0  0  0  0  0  0  0  0  0
    0.0000    0.0000    0.0000 C   0  0  0  0  0  0  0  0  0  0  0  0
    0.0000    0.0000    0.0000 C   0  0  0  0  0  0  0  0  0  0  0  0
    0.0000    0.0000    0.0000 C   0  0  0  0  0  0  0  0  0  0  0  0
  1  2  1  0
  2  3  2  0
  3  4  1  0
  4  5  2  0
  5  6  1  0
  6  7  1  0
  7  8  1  0
  8  9  2  0
  9 10  1  0
 10 11  1  0
 11 12  1  0
 12 13  2  0
 13 14  1  0
 14 15  2  0
 15 16  1  0
 16 17  2  0
 10 18  2  0
 18 19  1  0
 19 20  1  0
 20 21  1  0
 21 22  1  0
 22 23  1  0
 23 24  1  0
 24 25  1  0
  6 26  2  0
 26  2  1  0
 25  8  1  0
 17 12  1  0
 25 19  2  0
M  END
>  <pIC50>  (406) 
7.07

>  <ChEMBL_ID>  (406) 
CHEMBL2393245

>  <document_journal>  (406) 
Eur. J. Med. Chem.

>  <bao_endpoint>  (406) 
BAO_0000190

>  <potential_duplicate>  (406) 
False

>  <uo_units>  (406) 
UO_0000065

>  <canonical_smiles>  (406) 
Cl.Clc1cccc(Nc2nc(Cc3ccccc3)nc4CCNCCc24)c1

>  <parent_molecule_chembl_id>  (406) 
CHEMBL3040361

>  <assay_type>  (406) 
B

>  <src_id>  (406) 
1

>  <ligand_efficiency>  (406) 
{u'le': u'0.37', u'bei': u'19.37', u'sei': u'14.18', u'lle': u'2.53'}

>  <standard_flag>  (406) 
True

>  <molecule_chembl_id>  (406) 
CHEMBL2393245

>  <target_organism>  (406) 
Homo sapiens

>  <standard_units>  (406) 
nM

>  <record_id>  (406) 
1901468

>  <document_chembl_id>  (406) 
CHEMBL2390866

>  <bao_format>  (406) 
BAO_0000357

>  <data_validity_description>  (406) 
None

>  <activity_id>  (406) 
13335060

>  <standard_type>  (406) 
IC50

>  <target_chembl_id>  (406) 
CHEMBL217

>  <data_validity_comment>  (406) 
None

>  <published_value>  (406) 
85.8

>  <document_year>  (406) 
2013

>  <target_pref_name>  (406) 
Dopamine D2 receptor

>  <assay_chembl_id>  (406) 
CHEMBL2396124

>  <standard_relation>  (406) 
=

>  <assay_description>  (406) 
Displacement of [3H]-methylspiperone from dopamine D2L receptor (unknown origin) after 60 mins

>  <published_relation>  (406) 
=

>  <standard_value>  (406) 
85.8

>  <qudt_units>  (406) 
http://www.openphacts.org/units/Nanomolar

>  <target_tax_id>  (406) 
9606

>  <bao_label>  (406) 
single protein format

>  <published_units>  (406) 
nM

>  <pchembl_value>  (406) 
7.07

>  <published_type>  (406) 
IC50

>  <activity_comment>  (406) 
None

$$$$

     RDKit          

 26 29  0  0  0  0  0  0  0  0999 V2000
    0.0000    0.0000    0.0000 F   0  0  0  0  0  0  0  0  0  0  0  0
    0.0000    0.0000    0.0000 C   0  0  0  0  0  0  0  0  0  0  0  0
    0.0000    0.0000    0.0000 C   0  0  0  0  0  0  0  0  0  0  0  0
    0.0000    0.0000    0.0000 C   0  0  0  0  0  0  0  0  0  0  0  0
    0.0000    0.0000    0.0000 C   0  0  0  0  0  0  0  0  0  0  0  0
    0.0000    0.0000    0.0000 C   0  0  0  0  0  0  0  0  0  0  0  0
    0.0000    0.0000    0.0000 N   0  0  0  0  0  0  0  0  0  0  0  0
    0.0000    0.0000    0.0000 C   0  0  0  0  0  0  0  0  0  0  0  0
    0.0000    0.0000    0.0000 N   0  0  0  0  0  0  0  0  0  0  0  0
    0.0000    0.0000    0.0000 C   0  0  0  0  0  0  0  0  0  0  0  0
    0.0000    0.0000    0.0000 C   0  0  0  0  0  0  0  0  0  0  0  0
    0.0000    0.0000    0.0000 C   0  0  0  0  0  0  0  0  0  0  0  0
    0.0000    0.0000    0.0000 C   0  0  0  0  0  0  0  0  0  0  0  0
    0.0000    0.0000    0.0000 C   0  0  0  0  0  0  0  0  0  0  0  0
    0.0000    0.0000    0.0000 C   0  0  0  0  0  0  0  0  0  0  0  0
    0.0000    0.0000    0.0000 C   0  0  0  0  0  0  0  0  0  0  0  0
    0.0000    0.0000    0.0000 C   0  0  0  0  0  0  0  0  0  0  0  0
    0.0000    0.0000    0.0000 N   0  0  0  0  0  0  0  0  0  0  0  0
    0.0000    0.0000    0.0000 C   0  0  0  0  0  0  0  0  0  0  0  0
    0.0000    0.0000    0.0000 C   0  0  0  0  0  0  0  0  0  0  0  0
    0.0000    0.0000    0.0000 C   0  0  0  0  0  0  0  0  0  0  0  0
    0.0000    0.0000    0.0000 N   0  0  0  0  0  0  0  0  0  0  0  0
    0.0000    0.0000    0.0000 C   0  0  0  0  0  0  0  0  0  0  0  0
    0.0000    0.0000    0.0000 C   0  0  0  0  0  0  0  0  0  0  0  0
    0.0000    0.0000    0.0000 C   0  0  0  0  0  0  0  0  0  0  0  0
    0.0000    0.0000    0.0000 C   0  0  0  0  0  0  0  0  0  0  0  0
  1  2  1  0
  2  3  2  0
  3  4  1  0
  4  5  2  0
  5  6  1  0
  6  7  1  0
  7  8  1  0
  8  9  2  0
  9 10  1  0
 10 11  1  0
 11 12  1  0
 12 13  2  0
 13 14  1  0
 14 15  2  0
 15 16  1  0
 16 17  2  0
 10 18  2  0
 18 19  1  0
 19 20  1  0
 20 21  1  0
 21 22  1  0
 22 23  1  0
 23 24  1  0
 24 25  1  0
  6 26  2  0
 26  2  1  0
 25  8  1  0
 17 12  1  0
 25 19  2  0
M  END
>  <pIC50>  (407) 
7.2

>  <ChEMBL_ID>  (407) 
CHEMBL2393244

>  <document_journal>  (407) 
Eur. J. Med. Chem.

>  <bao_endpoint>  (407) 
BAO_0000190

>  <potential_duplicate>  (407) 
False

>  <uo_units>  (407) 
UO_0000065

>  <canonical_smiles>  (407) 
Cl.Fc1cccc(Nc2nc(Cc3ccccc3)nc4CCNCCc24)c1

>  <parent_molecule_chembl_id>  (407) 
CHEMBL3040288

>  <assay_type>  (407) 
B

>  <src_id>  (407) 
1

>  <ligand_efficiency>  (407) 
{u'le': u'0.38', u'bei': u'20.66', u'sei': u'14.44', u'lle': u'3.12'}

>  <standard_flag>  (407) 
True

>  <molecule_chembl_id>  (407) 
CHEMBL2393244

>  <target_organism>  (407) 
Homo sapiens

>  <standard_units>  (407) 
nM

>  <record_id>  (407) 
1901467

>  <document_chembl_id>  (407) 
CHEMBL2390866

>  <bao_format>  (407) 
BAO_0000357

>  <data_validity_description>  (407) 
None

>  <activity_id>  (407) 
13335094

>  <standard_type>  (407) 
IC50

>  <target_chembl_id>  (407) 
CHEMBL217

>  <data_validity_comment>  (407) 
None

>  <published_value>  (407) 
63.3

>  <document_year>  (407) 
2013

>  <target_pref_name>  (407) 
Dopamine D2 receptor

>  <assay_chembl_id>  (407) 
CHEMBL2396124

>  <standard_relation>  (407) 
=

>  <assay_description>  (407) 
Displacement of [3H]-methylspiperone from dopamine D2L receptor (unknown origin) after 60 mins

>  <published_relation>  (407) 
=

>  <standard_value>  (407) 
63.3

>  <qudt_units>  (407) 
http://www.openphacts.org/units/Nanomolar

>  <target_tax_id>  (407) 
9606

>  <bao_label>  (407) 
single protein format

>  <published_units>  (407) 
nM

>  <pchembl_value>  (407) 
7.2

>  <published_type>  (407) 
IC50

>  <activity_comment>  (407) 
None

$$$$

     RDKit          

 33 37  0  0  0  0  0  0  0  0999 V2000
    0.0000    0.0000    0.0000 C   0  0  0  0  0  0  0  0  0  0  0  0
    0.0000    0.0000    0.0000 O   0  0  0  0  0  0  0  0  0  0  0  0
    0.0000    0.0000    0.0000 C   0  0  0  0  0  0  0  0  0  0  0  0
    0.0000    0.0000    0.0000 C   0  0  0  0  0  0  0  0  0  0  0  0
    0.0000    0.0000    0.0000 C   0  0  0  0  0  0  0  0  0  0  0  0
    0.0000    0.0000    0.0000 C   0  0  0  0  0  0  0  0  0  0  0  0
    0.0000    0.0000    0.0000 C   0  0  0  0  0  0  0  0  0  0  0  0
    0.0000    0.0000    0.0000 C   0  0  0  0  0  0  0  0  0  0  0  0
    0.0000    0.0000    0.0000 N   0  0  0  0  0  0  0  0  0  0  0  0
    0.0000    0.0000    0.0000 C   0  0  0  0  0  0  0  0  0  0  0  0
    0.0000    0.0000    0.0000 C   0  0  0  0  0  0  0  0  0  0  0  0
    0.0000    0.0000    0.0000 N   0  0  0  0  0  0  0  0  0  0  0  0
    0.0000    0.0000    0.0000 C   0  0  0  0  0  0  0  0  0  0  0  0
    0.0000    0.0000    0.0000 C   0  0  0  0  0  0  0  0  0  0  0  0
    0.0000    0.0000    0.0000 C   0  0  0  0  0  0  0  0  0  0  0  0
    0.0000    0.0000    0.0000 C   0  0  0  0  0  0  0  0  0  0  0  0
    0.0000    0.0000    0.0000 C   0  0  0  0  0  0  0  0  0  0  0  0
    0.0000    0.0000    0.0000 N   0  0  0  0  0  0  0  0  0  0  0  0
    0.0000    0.0000    0.0000 C   0  0  0  0  0  0  0  0  0  0  0  0
    0.0000    0.0000    0.0000 C   0  0  0  0  0  0  0  0  0  0  0  0
    0.0000    0.0000    0.0000 C   0  0  0  0  0  0  0  0  0  0  0  0
    0.0000    0.0000    0.0000 C   0  0  0  0  0  0  0  0  0  0  0  0
    0.0000    0.0000    0.0000 C   0  0  0  0  0  0  0  0  0  0  0  0
    0.0000    0.0000    0.0000 C   0  0  0  0  0  0  0  0  0  0  0  0
    0.0000    0.0000    0.0000 C   0  0  0  0  0  0  0  0  0  0  0  0
    0.0000    0.0000    0.0000 C   0  0  0  0  0  0  0  0  0  0  0  0
    0.0000    0.0000    0.0000 C   0  0  0  0  0  0  0  0  0  0  0  0
    0.0000    0.0000    0.0000 C   0  0  0  0  0  0  0  0  0  0  0  0
    0.0000    0.0000    0.0000 C   0  0  0  0  0  0  0  0  0  0  0  0
    0.0000    0.0000    0.0000 C   0  0  0  0  0  0  0  0  0  0  0  0
    0.0000    0.0000    0.0000 O   0  0  0  0  0  0  0  0  0  0  0  0
    0.0000    0.0000    0.0000 C   0  0  0  0  0  0  0  0  0  0  0  0
    0.0000    0.0000    0.0000 C   0  0  0  0  0  0  0  0  0  0  0  0
  1  2  1  0
  2  3  1  0
  3  4  2  0
  4  5  1  0
  5  6  2  0
  6  7  1  0
  7  8  2  0
  8  9  1  0
  9 10  1  0
 10 11  1  0
 11 12  1  0
 12 13  1  0
 13 14  1  0
 14 15  1  0
 15 16  1  0
 16 17  1  0
 17 18  1  0
 18 19  1  0
 19 20  1  0
 20 21  2  0
 21 22  1  0
 22 23  2  0
 23 24  1  0
 24 25  2  0
 25 26  1  0
 26 27  2  0
 27 28  1  0
 28 29  2  0
 29 30  1  0
 30 31  2  0
 12 32  1  0
 32 33  1  0
  8  3  1  0
 33  9  1  0
 30 18  1  0
 29 20  1  0
 28 23  1  0
M  END
>  <pIC50>  (408) 
8.46

>  <ChEMBL_ID>  (408) 
CHEMBL2392349

>  <document_journal>  (408) 
Eur. J. Med. Chem.

>  <bao_endpoint>  (408) 
BAO_0000190

>  <potential_duplicate>  (408) 
False

>  <uo_units>  (408) 
UO_0000065

>  <canonical_smiles>  (408) 
COc1ccccc1N2CCN(CCCCCN3Cc4ccc5ccccc5c4C3=O)CC2

>  <parent_molecule_chembl_id>  (408) 
CHEMBL2392349

>  <assay_type>  (408) 
B

>  <src_id>  (408) 
1

>  <ligand_efficiency>  (408) 
{u'le': u'0.35', u'bei': u'19.06', u'sei': u'23.48', u'lle': u'3.7'}

>  <standard_flag>  (408) 
True

>  <molecule_chembl_id>  (408) 
CHEMBL2392349

>  <target_organism>  (408) 
Homo sapiens

>  <standard_units>  (408) 
nM

>  <record_id>  (408) 
1900368

>  <document_chembl_id>  (408) 
CHEMBL2390830

>  <bao_format>  (408) 
BAO_0000219

>  <data_validity_description>  (408) 
None

>  <activity_id>  (408) 
13342176

>  <standard_type>  (408) 
IC50

>  <target_chembl_id>  (408) 
CHEMBL217

>  <data_validity_comment>  (408) 
None

>  <published_value>  (408) 
3.5

>  <document_year>  (408) 
2013

>  <target_pref_name>  (408) 
Dopamine D2 receptor

>  <assay_chembl_id>  (408) 
CHEMBL2395897

>  <standard_relation>  (408) 
=

>  <assay_description>  (408) 
Inhibition of human recombinant dopamine D2S receptor expressed in HEK293 cells

>  <published_relation>  (408) 
=

>  <standard_value>  (408) 
3.5

>  <qudt_units>  (408) 
http://www.openphacts.org/units/Nanomolar

>  <target_tax_id>  (408) 
9606

>  <bao_label>  (408) 
cell-based format

>  <published_units>  (408) 
nM

>  <pchembl_value>  (408) 
8.46

>  <published_type>  (408) 
IC50

>  <activity_comment>  (408) 
None

$$$$

     RDKit          

 21 23  0  0  0  0  0  0  0  0999 V2000
    0.0000    0.0000    0.0000 C   0  0  0  0  0  0  0  0  0  0  0  0
    0.0000    0.0000    0.0000 N   0  0  0  0  0  0  0  0  0  0  0  0
    0.0000    0.0000    0.0000 C   0  0  0  0  0  0  0  0  0  0  0  0
    0.0000    0.0000    0.0000 C   0  0  0  0  0  0  0  0  0  0  0  0
    0.0000    0.0000    0.0000 C   0  0  0  0  0  0  0  0  0  0  0  0
    0.0000    0.0000    0.0000 C   0  0  0  0  0  0  0  0  0  0  0  0
    0.0000    0.0000    0.0000 N   0  0  0  0  0  0  0  0  0  0  0  0
    0.0000    0.0000    0.0000 C   0  0  0  0  0  0  0  0  0  0  0  0
    0.0000    0.0000    0.0000 C   0  0  0  0  0  0  0  0  0  0  0  0
    0.0000    0.0000    0.0000 C   0  0  0  0  0  0  0  0  0  0  0  0
    0.0000    0.0000    0.0000 C   0  0  0  0  0  0  0  0  0  0  0  0
    0.0000    0.0000    0.0000 C   0  0  0  0  0  0  0  0  0  0  0  0
    0.0000    0.0000    0.0000 C   0  0  0  0  0  0  0  0  0  0  0  0
    0.0000    0.0000    0.0000 C   0  0  0  0  0  0  0  0  0  0  0  0
    0.0000    0.0000    0.0000 C   0  0  0  0  0  0  0  0  0  0  0  0
    0.0000    0.0000    0.0000 C   0  0  0  0  0  0  0  0  0  0  0  0
    0.0000    0.0000    0.0000 C   0  0  0  0  0  0  0  0  0  0  0  0
    0.0000    0.0000    0.0000 C   0  0  0  0  0  0  0  0  0  0  0  0
    0.0000    0.0000    0.0000 C   0  0  0  0  0  0  0  0  0  0  0  0
    0.0000    0.0000    0.0000 C   0  0  0  0  0  0  0  0  0  0  0  0
    0.0000    0.0000    0.0000 C   0  0  0  0  0  0  0  0  0  0  0  0
  1  2  1  0
  2  3  1  0
  2  4  1  0
  4  5  1  0
  5  6  1  0
  6  7  1  0
  7  8  1  0
  8  9  2  0
  9 10  1  0
 10 11  2  0
 11 12  1  0
 12 13  2  0
 13 14  1  0
 14 15  1  0
 15 16  1  0
 16 17  2  0
 17 18  1  0
 18 19  2  0
 19 20  1  0
 20 21  2  0
 21  7  1  0
 13  8  1  0
 21 16  1  0
M  END
>  <pIC50>  (409) 
6.39

>  <ChEMBL_ID>  (409) 
CHEMBL11

>  <document_journal>  (409) 
J. Med. Chem.

>  <bao_endpoint>  (409) 
BAO_0000190

>  <potential_duplicate>  (409) 
False

>  <uo_units>  (409) 
UO_0000065

>  <canonical_smiles>  (409) 
CN(C)CCCN1c2ccccc2CCc3ccccc13

>  <parent_molecule_chembl_id>  (409) 
CHEMBL11

>  <assay_type>  (409) 
B

>  <src_id>  (409) 
1

>  <ligand_efficiency>  (409) 
{u'le': u'0.42', u'bei': u'22.78', u'sei': u'98.57', u'lle': u'2'}

>  <standard_flag>  (409) 
True

>  <molecule_chembl_id>  (409) 
CHEMBL11

>  <target_organism>  (409) 
Homo sapiens

>  <standard_units>  (409) 
nM

>  <record_id>  (409) 
1950053

>  <document_chembl_id>  (409) 
CHEMBL3085767

>  <bao_format>  (409) 
BAO_0000357

>  <data_validity_description>  (409) 
None

>  <activity_id>  (409) 
13828629

>  <standard_type>  (409) 
IC50

>  <target_chembl_id>  (409) 
CHEMBL217

>  <data_validity_comment>  (409) 
None

>  <published_value>  (409) 
0.41

>  <document_year>  (409) 
2013

>  <target_pref_name>  (409) 
Dopamine D2 receptor

>  <assay_chembl_id>  (409) 
CHEMBL3090831

>  <standard_relation>  (409) 
=

>  <assay_description>  (409) 
Binding affinity to dopamine D2 receptor (unknown origin) by radioligand binding assay

>  <published_relation>  (409) 
=

>  <standard_value>  (409) 
410

>  <qudt_units>  (409) 
http://www.openphacts.org/units/Nanomolar

>  <target_tax_id>  (409) 
9606

>  <bao_label>  (409) 
single protein format

>  <published_units>  (409) 
uM

>  <pchembl_value>  (409) 
6.39

>  <published_type>  (409) 
IC50

>  <activity_comment>  (409) 
None

$$$$

     RDKit          

 11 11  0  0  0  0  0  0  0  0999 V2000
    0.0000    0.0000    0.0000 N   0  0  0  0  0  0  0  0  0  0  0  0
    0.0000    0.0000    0.0000 C   0  0  0  0  0  0  0  0  0  0  0  0
    0.0000    0.0000    0.0000 C   0  0  0  0  0  0  0  0  0  0  0  0
    0.0000    0.0000    0.0000 C   0  0  0  0  0  0  0  0  0  0  0  0
    0.0000    0.0000    0.0000 C   0  0  0  0  0  0  0  0  0  0  0  0
    0.0000    0.0000    0.0000 C   0  0  0  0  0  0  0  0  0  0  0  0
    0.0000    0.0000    0.0000 C   0  0  0  0  0  0  0  0  0  0  0  0
    0.0000    0.0000    0.0000 O   0  0  0  0  0  0  0  0  0  0  0  0
    0.0000    0.0000    0.0000 C   0  0  0  0  0  0  0  0  0  0  0  0
    0.0000    0.0000    0.0000 O   0  0  0  0  0  0  0  0  0  0  0  0
    0.0000    0.0000    0.0000 C   0  0  0  0  0  0  0  0  0  0  0  0
  1  2  1  0
  2  3  1  0
  3  4  1  0
  4  5  2  0
  5  6  1  0
  6  7  2  0
  7  8  1  0
  7  9  1  0
  9 10  1  0
  9 11  2  0
 11  4  1  0
M  END
>  <pIC50>  (410) 
5.0

>  <ChEMBL_ID>  (410) 
CHEMBL1557

>  <document_journal>  (410) 
J. Med. Chem.

>  <bao_endpoint>  (410) 
BAO_0000190

>  <potential_duplicate>  (410) 
False

>  <uo_units>  (410) 
UO_0000065

>  <canonical_smiles>  (410) 
Cl.NCCc1ccc(O)c(O)c1

>  <parent_molecule_chembl_id>  (410) 
CHEMBL59

>  <assay_type>  (410) 
B

>  <src_id>  (410) 
1

>  <ligand_efficiency>  (410) 
{u'le': u'0.5', u'bei': u'26.11', u'sei': u'6.02', u'lle': u'3.23'}

>  <standard_flag>  (410) 
True

>  <molecule_chembl_id>  (410) 
CHEMBL1557

>  <target_organism>  (410) 
Homo sapiens

>  <standard_units>  (410) 
nM

>  <record_id>  (410) 
1966714

>  <document_chembl_id>  (410) 
CHEMBL3112461

>  <bao_format>  (410) 
BAO_0000219

>  <data_validity_description>  (410) 
None

>  <activity_id>  (410) 
13915675

>  <standard_type>  (410) 
IC50

>  <target_chembl_id>  (410) 
CHEMBL217

>  <data_validity_comment>  (410) 
None

>  <published_value>  (410) 
1

>  <document_year>  (410) 
2014

>  <target_pref_name>  (410) 
Dopamine D2 receptor

>  <assay_chembl_id>  (410) 
CHEMBL3117738

>  <standard_relation>  (410) 
=

>  <assay_description>  (410) 
Displacement of [3H]spiperone from low-affinity state of human dopamine D2L receptor transfected in HEK293 cells after 2 hrs by scintillation counting analysis

>  <published_relation>  (410) 
=

>  <standard_value>  (410) 
100000

>  <qudt_units>  (410) 
http://www.openphacts.org/units/Nanomolar

>  <target_tax_id>  (410) 
9606

>  <bao_label>  (410) 
cell-based format

>  <published_units>  (410) 
10'-4M

>  <pchembl_value>  (410) 
4

>  <published_type>  (410) 
IC50

>  <activity_comment>  (410) 
None

$$$$

     RDKit          

 18 20  0  0  0  0  0  0  0  0999 V2000
    0.0000    0.0000    0.0000 N   0  0  0  0  0  0  0  0  0  0  0  0
    0.0000    0.0000    0.0000 C   0  0  0  0  0  0  0  0  0  0  0  0
    0.0000    0.0000    0.0000 C   0  0  0  0  0  0  0  0  0  0  0  0
    0.0000    0.0000    0.0000 C   0  0  0  0  0  0  0  0  0  0  0  0
    0.0000    0.0000    0.0000 C   0  0  0  0  0  0  0  0  0  0  0  0
    0.0000    0.0000    0.0000 O   0  0  0  0  0  0  0  0  0  0  0  0
    0.0000    0.0000    0.0000 C   0  0  0  0  0  0  0  0  0  0  0  0
    0.0000    0.0000    0.0000 O   0  0  0  0  0  0  0  0  0  0  0  0
    0.0000    0.0000    0.0000 C   0  0  0  0  0  0  0  0  0  0  0  0
    0.0000    0.0000    0.0000 C   0  0  0  0  0  0  0  0  0  0  0  0
    0.0000    0.0000    0.0000 C   0  0  0  0  0  0  0  0  0  0  0  0
    0.0000    0.0000    0.0000 C   0  0  0  0  0  0  0  0  0  0  0  0
    0.0000    0.0000    0.0000 C   0  0  0  0  0  0  0  0  0  0  0  0
    0.0000    0.0000    0.0000 N   0  0  0  0  0  0  0  0  0  0  0  0
    0.0000    0.0000    0.0000 C   0  0  0  0  0  0  0  0  0  0  0  0
    0.0000    0.0000    0.0000 C   0  0  0  0  0  0  0  0  0  0  0  0
    0.0000    0.0000    0.0000 C   0  0  0  0  0  0  0  0  0  0  0  0
    0.0000    0.0000    0.0000 C   0  0  0  0  0  0  0  0  0  0  0  0
  1  2  1  0
  2  3  2  0
  3  4  1  0
  4  5  2  0
  5  6  1  0
  6  7  1  0
  7  8  2  0
  7  9  1  0
  9 10  2  0
 10 11  1  0
 11 12  2  0
  9 13  1  0
 13 14  1  0
 14 15  1  0
 15 16  1  0
 16 17  1  0
 17 18  1  0
 12  2  1  0
 11  5  1  0
 18 14  1  0
M  END
>  <pIC50>  (411) 
4.79

>  <ChEMBL_ID>  (411) 
CHEMBL3113644

>  <document_journal>  (411) 
Eur. J. Med. Chem.

>  <bao_endpoint>  (411) 
BAO_0000190

>  <potential_duplicate>  (411) 
False

>  <uo_units>  (411) 
UO_0000065

>  <canonical_smiles>  (411) 
Nc1ccc2OC(=O)C(=Cc2c1)CN3CCCC3

>  <parent_molecule_chembl_id>  (411) 
CHEMBL3113644

>  <assay_type>  (411) 
B

>  <src_id>  (411) 
1

>  <ligand_efficiency>  (411) 
{u'le': u'0.36', u'bei': u'19.6', u'sei': u'8.62', u'lle': u'3.14'}

>  <standard_flag>  (411) 
True

>  <molecule_chembl_id>  (411) 
CHEMBL3113644

>  <target_organism>  (411) 
Homo sapiens

>  <standard_units>  (411) 
nM

>  <record_id>  (411) 
1964358

>  <document_chembl_id>  (411) 
CHEMBL3112537

>  <bao_format>  (411) 
BAO_0000219

>  <data_validity_description>  (411) 
None

>  <activity_id>  (411) 
13920838

>  <standard_type>  (411) 
IC50

>  <target_chembl_id>  (411) 
CHEMBL217

>  <data_validity_comment>  (411) 
None

>  <published_value>  (411) 
16280

>  <document_year>  (411) 
2014

>  <target_pref_name>  (411) 
Dopamine D2 receptor

>  <assay_chembl_id>  (411) 
CHEMBL3117964

>  <standard_relation>  (411) 
=

>  <assay_description>  (411) 
Antagonist activity at dopamine D2 receptor (unknown origin) expressed in HEK cells co-expressing Gqi5 assessed as inhibition of dopamine-induced effect by FLIPR assay

>  <published_relation>  (411) 
=

>  <standard_value>  (411) 
16280

>  <qudt_units>  (411) 
http://www.openphacts.org/units/Nanomolar

>  <target_tax_id>  (411) 
9606

>  <bao_label>  (411) 
cell-based format

>  <published_units>  (411) 
nM

>  <pchembl_value>  (411) 
4.79

>  <published_type>  (411) 
IC50

>  <activity_comment>  (411) 
None

$$$$

     RDKit          

 70 77  0  0  0  0  0  0  0  0999 V2000
    0.0000    0.0000    0.0000 C   0  0  0  0  0  0  0  0  0  0  0  0
    0.0000    0.0000    0.0000 N   0  0  0  0  0  0  0  0  0  0  0  0
    0.0000    0.0000    0.0000 C   0  0  0  0  0  0  0  0  0  0  0  0
    0.0000    0.0000    0.0000 C   0  0  0  0  0  0  0  0  0  0  0  0
    0.0000    0.0000    0.0000 C   0  0  0  0  0  0  0  0  0  0  0  0
    0.0000    0.0000    0.0000 C   0  0  0  0  0  0  0  0  0  0  0  0
    0.0000    0.0000    0.0000 C   0  0  0  0  0  0  0  0  0  0  0  0
    0.0000    0.0000    0.0000 C   0  0  0  0  0  0  0  0  0  0  0  0
    0.0000    0.0000    0.0000 C   0  0  0  0  0  0  0  0  0  0  0  0
    0.0000    0.0000    0.0000 C   0  0  0  0  0  0  0  0  0  0  0  0
    0.0000    0.0000    0.0000 C   0  0  0  0  0  0  0  0  0  0  0  0
    0.0000    0.0000    0.0000 C   0  0  0  0  0  0  0  0  0  0  0  0
    0.0000    0.0000    0.0000 C   0  0  0  0  0  0  0  0  0  0  0  0
    0.0000    0.0000    0.0000 C   0  0  0  0  0  0  0  0  0  0  0  0
    0.0000    0.0000    0.0000 C   0  0  0  0  0  0  0  0  0  0  0  0
    0.0000    0.0000    0.0000 C   0  0  0  0  0  0  0  0  0  0  0  0
    0.0000    0.0000    0.0000 O   0  0  0  0  0  0  0  0  0  0  0  0
    0.0000    0.0000    0.0000 C   0  0  0  0  0  0  0  0  0  0  0  0
    0.0000    0.0000    0.0000 C   0  0  0  0  0  0  0  0  0  0  0  0
    0.0000    0.0000    0.0000 C   0  0  0  0  0  0  0  0  0  0  0  0
    0.0000    0.0000    0.0000 N   0  0  0  0  0  0  0  0  0  0  0  0
    0.0000    0.0000    0.0000 C   0  0  0  0  0  0  0  0  0  0  0  0
    0.0000    0.0000    0.0000 O   0  0  0  0  0  0  0  0  0  0  0  0
    0.0000    0.0000    0.0000 C   0  0  0  0  0  0  0  0  0  0  0  0
    0.0000    0.0000    0.0000 C   0  0  0  0  0  0  0  0  0  0  0  0
    0.0000    0.0000    0.0000 C   0  0  0  0  0  0  0  0  0  0  0  0
    0.0000    0.0000    0.0000 C   0  0  0  0  0  0  0  0  0  0  0  0
    0.0000    0.0000    0.0000 C   0  0  0  0  0  0  0  0  0  0  0  0
    0.0000    0.0000    0.0000 C   0  0  0  0  0  0  0  0  0  0  0  0
    0.0000    0.0000    0.0000 C   0  0  0  0  0  0  0  0  0  0  0  0
    0.0000    0.0000    0.0000 C   0  0  0  0  0  0  0  0  0  0  0  0
    0.0000    0.0000    0.0000 C   0  0  0  0  0  0  0  0  0  0  0  0
    0.0000    0.0000    0.0000 C   0  0  0  0  0  0  0  0  0  0  0  0
    0.0000    0.0000    0.0000 C   0  0  0  0  0  0  0  0  0  0  0  0
    0.0000    0.0000    0.0000 C   0  0  0  0  0  0  0  0  0  0  0  0
    0.0000    0.0000    0.0000 C   0  0  0  0  0  0  0  0  0  0  0  0
    0.0000    0.0000    0.0000 C   0  0  0  0  0  0  0  0  0  0  0  0
    0.0000    0.0000    0.0000 C   0  0  0  0  0  0  0  0  0  0  0  0
    0.0000    0.0000    0.0000 C   0  0  0  0  0  0  0  0  0  0  0  0
    0.0000    0.0000    0.0000 C   0  0  0  0  0  0  0  0  0  0  0  0
    0.0000    0.0000    0.0000 C   0  0  0  0  0  0  0  0  0  0  0  0
    0.0000    0.0000    0.0000 C   0  0  0  0  0  0  0  0  0  0  0  0
    0.0000    0.0000    0.0000 O   0  0  0  0  0  0  0  0  0  0  0  0
    0.0000    0.0000    0.0000 N   0  0  0  0  0  0  0  0  0  0  0  0
    0.0000    0.0000    0.0000 C   0  0  0  0  0  0  0  0  0  0  0  0
    0.0000    0.0000    0.0000 C   0  0  0  0  0  0  0  0  0  0  0  0
    0.0000    0.0000    0.0000 C   0  0  0  0  0  0  0  0  0  0  0  0
    0.0000    0.0000    0.0000 O   0  0  0  0  0  0  0  0  0  0  0  0
    0.0000    0.0000    0.0000 C   0  0  0  0  0  0  0  0  0  0  0  0
    0.0000    0.0000    0.0000 C   0  0  0  0  0  0  0  0  0  0  0  0
    0.0000    0.0000    0.0000 C   0  0  0  0  0  0  0  0  0  0  0  0
    0.0000    0.0000    0.0000 C   0  0  0  0  0  0  0  0  0  0  0  0
    0.0000    0.0000    0.0000 C   0  0  0  0  0  0  0  0  0  0  0  0
    0.0000    0.0000    0.0000 C   0  0  0  0  0  0  0  0  0  0  0  0
    0.0000    0.0000    0.0000 N   0  0  0  0  0  0  0  0  0  0  0  0
    0.0000    0.0000    0.0000 C   0  0  0  0  0  0  0  0  0  0  0  0
    0.0000    0.0000    0.0000 C   0  0  0  0  0  0  0  0  0  0  0  0
    0.0000    0.0000    0.0000 C   0  0  0  0  0  0  0  0  0  0  0  0
    0.0000    0.0000    0.0000 C   0  0  0  0  0  0  0  0  0  0  0  0
    0.0000    0.0000    0.0000 C   0  0  0  0  0  0  0  0  0  0  0  0
    0.0000    0.0000    0.0000 C   0  0  0  0  0  0  0  0  0  0  0  0
    0.0000    0.0000    0.0000 C   0  0  0  0  0  0  0  0  0  0  0  0
    0.0000    0.0000    0.0000 C   0  0  0  0  0  0  0  0  0  0  0  0
    0.0000    0.0000    0.0000 C   0  0  0  0  0  0  0  0  0  0  0  0
    0.0000    0.0000    0.0000 C   0  0  0  0  0  0  0  0  0  0  0  0
    0.0000    0.0000    0.0000 C   0  0  0  0  0  0  0  0  0  0  0  0
    0.0000    0.0000    0.0000 O   0  0  0  0  0  0  0  0  0  0  0  0
    0.0000    0.0000    0.0000 C   0  0  0  0  0  0  0  0  0  0  0  0
    0.0000    0.0000    0.0000 O   0  0  0  0  0  0  0  0  0  0  0  0
    0.0000    0.0000    0.0000 C   0  0  0  0  0  0  0  0  0  0  0  0
  1  2  1  0
  2  3  1  0
  3  4  1  0
  4  5  1  0
  5  6  2  0
  6  7  1  0
  7  8  2  0
  8  9  1  0
  9 10  2  0
 10 11  1  0
 11 12  1  0
 12 13  1  0
 13 14  2  0
 14 15  1  0
 15 16  2  0
 16 17  1  0
 17 18  1  0
 18 19  1  0
 19 20  1  0
 20 21  1  0
 21 22  1  0
 22 23  2  0
 22 24  1  0
 24 25  1  0
 25 26  1  0
 26 27  1  0
 27 28  1  0
 28 29  1  0
 29 30  1  0
 30 31  1  0
 31 32  1  0
 32 33  1  0
 33 34  1  0
 34 35  1  0
 35 36  1  0
 36 37  1  0
 37 38  1  0
 38 39  1  0
 39 40  1  0
 40 41  1  0
 41 42  1  0
 42 43  2  0
 42 44  1  0
 44 45  1  0
 45 46  1  0
 46 47  1  0
 47 48  1  0
 48 49  1  0
 49 50  2  0
 50 51  1  0
 51 52  2  0
 52 53  1  0
 53 54  1  0
 54 55  1  0
 55 56  1  0
 55 57  1  0
 57 58  1  0
 58 59  1  0
 59 60  1  0
 60 61  2  0
 61 62  1  0
 62 63  2  0
 63 64  1  0
 63 65  1  0
 65 66  2  0
 66 67  1  0
 16 68  1  0
 68 69  1  0
 68 70  2  0
 11  2  1  0
 10  5  1  0
 70  9  1  0
 70 13  1  0
 66 49  1  0
 65 52  1  0
 64 54  1  0
 64 59  2  0
M  END
>  <pIC50>  (412) 
5.81

>  <ChEMBL_ID>  (412) 
CHEMBL3134071

>  <document_journal>  (412) 
MedChemComm

>  <bao_endpoint>  (412) 
BAO_0000190

>  <potential_duplicate>  (412) 
False

>  <uo_units>  (412) 
UO_0000065

>  <canonical_smiles>  (412) 
CN1CCc2cccc3c2[C@H]1Cc4ccc(OCCCNC(=O)CCCCCCCCCCCCCCCCCCC(=O)NCCCOc5ccc6C[C@H]7N(C)CCc8cccc(c78)c6c5O)c(O)c34

>  <parent_molecule_chembl_id>  (412) 
CHEMBL3134071

>  <assay_type>  (412) 
B

>  <src_id>  (412) 
1

>  <ligand_efficiency>  (412) 
{u'le': u'0.11', u'bei': u'6.08', u'sei': u'4.7', u'lle': u'-6.73'}

>  <standard_flag>  (412) 
True

>  <molecule_chembl_id>  (412) 
CHEMBL3134071

>  <target_organism>  (412) 
Homo sapiens

>  <standard_units>  (412) 
nM

>  <record_id>  (412) 
1975970

>  <document_chembl_id>  (412) 
CHEMBL3132795

>  <bao_format>  (412) 
BAO_0000219

>  <data_validity_description>  (412) 
None

>  <activity_id>  (412) 
13965370

>  <standard_type>  (412) 
IC50

>  <target_chembl_id>  (412) 
CHEMBL217

>  <data_validity_comment>  (412) 
None

>  <published_value>  (412) 
1550

>  <document_year>  (412) 
2013

>  <target_pref_name>  (412) 
Dopamine D2 receptor

>  <assay_chembl_id>  (412) 
CHEMBL3136959

>  <standard_relation>  (412) 
=

>  <assay_description>  (412) 
Displacement of [3H]spiperone from human recombinant dopamine D2L receptor expressed in CHOFlpIn cells after 3 hrs by liquid scintillation counting

>  <published_relation>  (412) 
=

>  <standard_value>  (412) 
1550

>  <qudt_units>  (412) 
http://www.openphacts.org/units/Nanomolar

>  <target_tax_id>  (412) 
9606

>  <bao_label>  (412) 
cell-based format

>  <published_units>  (412) 
nM

>  <pchembl_value>  (412) 
5.81

>  <published_type>  (412) 
IC50

>  <activity_comment>  (412) 
None

$$$$

     RDKit          

 68 75  0  0  0  0  0  0  0  0999 V2000
    0.0000    0.0000    0.0000 C   0  0  0  0  0  0  0  0  0  0  0  0
    0.0000    0.0000    0.0000 N   0  0  0  0  0  0  0  0  0  0  0  0
    0.0000    0.0000    0.0000 C   0  0  0  0  0  0  0  0  0  0  0  0
    0.0000    0.0000    0.0000 C   0  0  0  0  0  0  0  0  0  0  0  0
    0.0000    0.0000    0.0000 C   0  0  0  0  0  0  0  0  0  0  0  0
    0.0000    0.0000    0.0000 C   0  0  0  0  0  0  0  0  0  0  0  0
    0.0000    0.0000    0.0000 C   0  0  0  0  0  0  0  0  0  0  0  0
    0.0000    0.0000    0.0000 C   0  0  0  0  0  0  0  0  0  0  0  0
    0.0000    0.0000    0.0000 C   0  0  0  0  0  0  0  0  0  0  0  0
    0.0000    0.0000    0.0000 C   0  0  0  0  0  0  0  0  0  0  0  0
    0.0000    0.0000    0.0000 C   0  0  0  0  0  0  0  0  0  0  0  0
    0.0000    0.0000    0.0000 C   0  0  0  0  0  0  0  0  0  0  0  0
    0.0000    0.0000    0.0000 C   0  0  0  0  0  0  0  0  0  0  0  0
    0.0000    0.0000    0.0000 C   0  0  0  0  0  0  0  0  0  0  0  0
    0.0000    0.0000    0.0000 C   0  0  0  0  0  0  0  0  0  0  0  0
    0.0000    0.0000    0.0000 C   0  0  0  0  0  0  0  0  0  0  0  0
    0.0000    0.0000    0.0000 O   0  0  0  0  0  0  0  0  0  0  0  0
    0.0000    0.0000    0.0000 C   0  0  0  0  0  0  0  0  0  0  0  0
    0.0000    0.0000    0.0000 C   0  0  0  0  0  0  0  0  0  0  0  0
    0.0000    0.0000    0.0000 C   0  0  0  0  0  0  0  0  0  0  0  0
    0.0000    0.0000    0.0000 N   0  0  0  0  0  0  0  0  0  0  0  0
    0.0000    0.0000    0.0000 C   0  0  0  0  0  0  0  0  0  0  0  0
    0.0000    0.0000    0.0000 O   0  0  0  0  0  0  0  0  0  0  0  0
    0.0000    0.0000    0.0000 C   0  0  0  0  0  0  0  0  0  0  0  0
    0.0000    0.0000    0.0000 C   0  0  0  0  0  0  0  0  0  0  0  0
    0.0000    0.0000    0.0000 C   0  0  0  0  0  0  0  0  0  0  0  0
    0.0000    0.0000    0.0000 C   0  0  0  0  0  0  0  0  0  0  0  0
    0.0000    0.0000    0.0000 C   0  0  0  0  0  0  0  0  0  0  0  0
    0.0000    0.0000    0.0000 C   0  0  0  0  0  0  0  0  0  0  0  0
    0.0000    0.0000    0.0000 C   0  0  0  0  0  0  0  0  0  0  0  0
    0.0000    0.0000    0.0000 C   0  0  0  0  0  0  0  0  0  0  0  0
    0.0000    0.0000    0.0000 C   0  0  0  0  0  0  0  0  0  0  0  0
    0.0000    0.0000    0.0000 C   0  0  0  0  0  0  0  0  0  0  0  0
    0.0000    0.0000    0.0000 C   0  0  0  0  0  0  0  0  0  0  0  0
    0.0000    0.0000    0.0000 C   0  0  0  0  0  0  0  0  0  0  0  0
    0.0000    0.0000    0.0000 C   0  0  0  0  0  0  0  0  0  0  0  0
    0.0000    0.0000    0.0000 C   0  0  0  0  0  0  0  0  0  0  0  0
    0.0000    0.0000    0.0000 C   0  0  0  0  0  0  0  0  0  0  0  0
    0.0000    0.0000    0.0000 C   0  0  0  0  0  0  0  0  0  0  0  0
    0.0000    0.0000    0.0000 C   0  0  0  0  0  0  0  0  0  0  0  0
    0.0000    0.0000    0.0000 O   0  0  0  0  0  0  0  0  0  0  0  0
    0.0000    0.0000    0.0000 N   0  0  0  0  0  0  0  0  0  0  0  0
    0.0000    0.0000    0.0000 C   0  0  0  0  0  0  0  0  0  0  0  0
    0.0000    0.0000    0.0000 C   0  0  0  0  0  0  0  0  0  0  0  0
    0.0000    0.0000    0.0000 C   0  0  0  0  0  0  0  0  0  0  0  0
    0.0000    0.0000    0.0000 O   0  0  0  0  0  0  0  0  0  0  0  0
    0.0000    0.0000    0.0000 C   0  0  0  0  0  0  0  0  0  0  0  0
    0.0000    0.0000    0.0000 C   0  0  0  0  0  0  0  0  0  0  0  0
    0.0000    0.0000    0.0000 C   0  0  0  0  0  0  0  0  0  0  0  0
    0.0000    0.0000    0.0000 C   0  0  0  0  0  0  0  0  0  0  0  0
    0.0000    0.0000    0.0000 C   0  0  0  0  0  0  0  0  0  0  0  0
    0.0000    0.0000    0.0000 C   0  0  0  0  0  0  0  0  0  0  0  0
    0.0000    0.0000    0.0000 N   0  0  0  0  0  0  0  0  0  0  0  0
    0.0000    0.0000    0.0000 C   0  0  0  0  0  0  0  0  0  0  0  0
    0.0000    0.0000    0.0000 C   0  0  0  0  0  0  0  0  0  0  0  0
    0.0000    0.0000    0.0000 C   0  0  0  0  0  0  0  0  0  0  0  0
    0.0000    0.0000    0.0000 C   0  0  0  0  0  0  0  0  0  0  0  0
    0.0000    0.0000    0.0000 C   0  0  0  0  0  0  0  0  0  0  0  0
    0.0000    0.0000    0.0000 C   0  0  0  0  0  0  0  0  0  0  0  0
    0.0000    0.0000    0.0000 C   0  0  0  0  0  0  0  0  0  0  0  0
    0.0000    0.0000    0.0000 C   0  0  0  0  0  0  0  0  0  0  0  0
    0.0000    0.0000    0.0000 C   0  0  0  0  0  0  0  0  0  0  0  0
    0.0000    0.0000    0.0000 C   0  0  0  0  0  0  0  0  0  0  0  0
    0.0000    0.0000    0.0000 C   0  0  0  0  0  0  0  0  0  0  0  0
    0.0000    0.0000    0.0000 O   0  0  0  0  0  0  0  0  0  0  0  0
    0.0000    0.0000    0.0000 C   0  0  0  0  0  0  0  0  0  0  0  0
    0.0000    0.0000    0.0000 O   0  0  0  0  0  0  0  0  0  0  0  0
    0.0000    0.0000    0.0000 C   0  0  0  0  0  0  0  0  0  0  0  0
  1  2  1  0
  2  3  1  0
  3  4  1  0
  4  5  1  0
  5  6  2  0
  6  7  1  0
  7  8  2  0
  8  9  1  0
  9 10  2  0
 10 11  1  0
 11 12  1  0
 12 13  1  0
 13 14  2  0
 14 15  1  0
 15 16  2  0
 16 17  1  0
 17 18  1  0
 18 19  1  0
 19 20  1  0
 20 21  1  0
 21 22  1  0
 22 23  2  0
 22 24  1  0
 24 25  1  0
 25 26  1  0
 26 27  1  0
 27 28  1  0
 28 29  1  0
 29 30  1  0
 30 31  1  0
 31 32  1  0
 32 33  1  0
 33 34  1  0
 34 35  1  0
 35 36  1  0
 36 37  1  0
 37 38  1  0
 38 39  1  0
 39 40  1  0
 40 41  2  0
 40 42  1  0
 42 43  1  0
 43 44  1  0
 44 45  1  0
 45 46  1  0
 46 47  1  0
 47 48  2  0
 48 49  1  0
 49 50  2  0
 50 51  1  0
 51 52  1  0
 52 53  1  0
 53 54  1  0
 53 55  1  0
 55 56  1  0
 56 57  1  0
 57 58  1  0
 58 59  2  0
 59 60  1  0
 60 61  2  0
 61 62  1  0
 61 63  1  0
 63 64  2  0
 64 65  1  0
 16 66  1  0
 66 67  1  0
 66 68  2  0
 11  2  1  0
 10  5  1  0
 68  9  1  0
 68 13  1  0
 64 47  1  0
 63 50  1  0
 62 52  1  0
 62 57  2  0
M  END
>  <pIC50>  (413) 
5.57

>  <ChEMBL_ID>  (413) 
CHEMBL3134070

>  <document_journal>  (413) 
MedChemComm

>  <bao_endpoint>  (413) 
BAO_0000190

>  <potential_duplicate>  (413) 
False

>  <uo_units>  (413) 
UO_0000065

>  <canonical_smiles>  (413) 
CN1CCc2cccc3c2[C@H]1Cc4ccc(OCCCNC(=O)CCCCCCCCCCCCCCCCC(=O)NCCCOc5ccc6C[C@H]7N(C)CCc8cccc(c78)c6c5O)c(O)c34

>  <parent_molecule_chembl_id>  (413) 
CHEMBL3134070

>  <assay_type>  (413) 
B

>  <src_id>  (413) 
1

>  <ligand_efficiency>  (413) 
{u'le': u'0.11', u'bei': u'6.01', u'sei': u'4.51', u'lle': u'-6.06'}

>  <standard_flag>  (413) 
True

>  <molecule_chembl_id>  (413) 
CHEMBL3134070

>  <target_organism>  (413) 
Homo sapiens

>  <standard_units>  (413) 
nM

>  <record_id>  (413) 
1975969

>  <document_chembl_id>  (413) 
CHEMBL3132795

>  <bao_format>  (413) 
BAO_0000219

>  <data_validity_description>  (413) 
None

>  <activity_id>  (413) 
13965371

>  <standard_type>  (413) 
IC50

>  <target_chembl_id>  (413) 
CHEMBL217

>  <data_validity_comment>  (413) 
None

>  <published_value>  (413) 
2680

>  <document_year>  (413) 
2013

>  <target_pref_name>  (413) 
Dopamine D2 receptor

>  <assay_chembl_id>  (413) 
CHEMBL3136959

>  <standard_relation>  (413) 
=

>  <assay_description>  (413) 
Displacement of [3H]spiperone from human recombinant dopamine D2L receptor expressed in CHOFlpIn cells after 3 hrs by liquid scintillation counting

>  <published_relation>  (413) 
=

>  <standard_value>  (413) 
2680

>  <qudt_units>  (413) 
http://www.openphacts.org/units/Nanomolar

>  <target_tax_id>  (413) 
9606

>  <bao_label>  (413) 
cell-based format

>  <published_units>  (413) 
nM

>  <pchembl_value>  (413) 
5.57

>  <published_type>  (413) 
IC50

>  <activity_comment>  (413) 
None

$$$$

     RDKit          

 62 69  0  0  0  0  0  0  0  0999 V2000
    0.0000    0.0000    0.0000 C   0  0  0  0  0  0  0  0  0  0  0  0
    0.0000    0.0000    0.0000 N   0  0  0  0  0  0  0  0  0  0  0  0
    0.0000    0.0000    0.0000 C   0  0  0  0  0  0  0  0  0  0  0  0
    0.0000    0.0000    0.0000 C   0  0  0  0  0  0  0  0  0  0  0  0
    0.0000    0.0000    0.0000 C   0  0  0  0  0  0  0  0  0  0  0  0
    0.0000    0.0000    0.0000 C   0  0  0  0  0  0  0  0  0  0  0  0
    0.0000    0.0000    0.0000 C   0  0  0  0  0  0  0  0  0  0  0  0
    0.0000    0.0000    0.0000 C   0  0  0  0  0  0  0  0  0  0  0  0
    0.0000    0.0000    0.0000 C   0  0  0  0  0  0  0  0  0  0  0  0
    0.0000    0.0000    0.0000 C   0  0  0  0  0  0  0  0  0  0  0  0
    0.0000    0.0000    0.0000 C   0  0  0  0  0  0  0  0  0  0  0  0
    0.0000    0.0000    0.0000 C   0  0  0  0  0  0  0  0  0  0  0  0
    0.0000    0.0000    0.0000 C   0  0  0  0  0  0  0  0  0  0  0  0
    0.0000    0.0000    0.0000 C   0  0  0  0  0  0  0  0  0  0  0  0
    0.0000    0.0000    0.0000 C   0  0  0  0  0  0  0  0  0  0  0  0
    0.0000    0.0000    0.0000 C   0  0  0  0  0  0  0  0  0  0  0  0
    0.0000    0.0000    0.0000 O   0  0  0  0  0  0  0  0  0  0  0  0
    0.0000    0.0000    0.0000 C   0  0  0  0  0  0  0  0  0  0  0  0
    0.0000    0.0000    0.0000 C   0  0  0  0  0  0  0  0  0  0  0  0
    0.0000    0.0000    0.0000 C   0  0  0  0  0  0  0  0  0  0  0  0
    0.0000    0.0000    0.0000 N   0  0  0  0  0  0  0  0  0  0  0  0
    0.0000    0.0000    0.0000 C   0  0  0  0  0  0  0  0  0  0  0  0
    0.0000    0.0000    0.0000 O   0  0  0  0  0  0  0  0  0  0  0  0
    0.0000    0.0000    0.0000 C   0  0  0  0  0  0  0  0  0  0  0  0
    0.0000    0.0000    0.0000 C   0  0  0  0  0  0  0  0  0  0  0  0
    0.0000    0.0000    0.0000 C   0  0  0  0  0  0  0  0  0  0  0  0
    0.0000    0.0000    0.0000 C   0  0  0  0  0  0  0  0  0  0  0  0
    0.0000    0.0000    0.0000 C   0  0  0  0  0  0  0  0  0  0  0  0
    0.0000    0.0000    0.0000 C   0  0  0  0  0  0  0  0  0  0  0  0
    0.0000    0.0000    0.0000 C   0  0  0  0  0  0  0  0  0  0  0  0
    0.0000    0.0000    0.0000 C   0  0  0  0  0  0  0  0  0  0  0  0
    0.0000    0.0000    0.0000 C   0  0  0  0  0  0  0  0  0  0  0  0
    0.0000    0.0000    0.0000 C   0  0  0  0  0  0  0  0  0  0  0  0
    0.0000    0.0000    0.0000 C   0  0  0  0  0  0  0  0  0  0  0  0
    0.0000    0.0000    0.0000 O   0  0  0  0  0  0  0  0  0  0  0  0
    0.0000    0.0000    0.0000 N   0  0  0  0  0  0  0  0  0  0  0  0
    0.0000    0.0000    0.0000 C   0  0  0  0  0  0  0  0  0  0  0  0
    0.0000    0.0000    0.0000 C   0  0  0  0  0  0  0  0  0  0  0  0
    0.0000    0.0000    0.0000 C   0  0  0  0  0  0  0  0  0  0  0  0
    0.0000    0.0000    0.0000 O   0  0  0  0  0  0  0  0  0  0  0  0
    0.0000    0.0000    0.0000 C   0  0  0  0  0  0  0  0  0  0  0  0
    0.0000    0.0000    0.0000 C   0  0  0  0  0  0  0  0  0  0  0  0
    0.0000    0.0000    0.0000 C   0  0  0  0  0  0  0  0  0  0  0  0
    0.0000    0.0000    0.0000 C   0  0  0  0  0  0  0  0  0  0  0  0
    0.0000    0.0000    0.0000 C   0  0  0  0  0  0  0  0  0  0  0  0
    0.0000    0.0000    0.0000 C   0  0  0  0  0  0  0  0  0  0  0  0
    0.0000    0.0000    0.0000 N   0  0  0  0  0  0  0  0  0  0  0  0
    0.0000    0.0000    0.0000 C   0  0  0  0  0  0  0  0  0  0  0  0
    0.0000    0.0000    0.0000 C   0  0  0  0  0  0  0  0  0  0  0  0
    0.0000    0.0000    0.0000 C   0  0  0  0  0  0  0  0  0  0  0  0
    0.0000    0.0000    0.0000 C   0  0  0  0  0  0  0  0  0  0  0  0
    0.0000    0.0000    0.0000 C   0  0  0  0  0  0  0  0  0  0  0  0
    0.0000    0.0000    0.0000 C   0  0  0  0  0  0  0  0  0  0  0  0
    0.0000    0.0000    0.0000 C   0  0  0  0  0  0  0  0  0  0  0  0
    0.0000    0.0000    0.0000 C   0  0  0  0  0  0  0  0  0  0  0  0
    0.0000    0.0000    0.0000 C   0  0  0  0  0  0  0  0  0  0  0  0
    0.0000    0.0000    0.0000 C   0  0  0  0  0  0  0  0  0  0  0  0
    0.0000    0.0000    0.0000 C   0  0  0  0  0  0  0  0  0  0  0  0
    0.0000    0.0000    0.0000 O   0  0  0  0  0  0  0  0  0  0  0  0
    0.0000    0.0000    0.0000 C   0  0  0  0  0  0  0  0  0  0  0  0
    0.0000    0.0000    0.0000 O   0  0  0  0  0  0  0  0  0  0  0  0
    0.0000    0.0000    0.0000 C   0  0  0  0  0  0  0  0  0  0  0  0
  1  2  1  0
  2  3  1  0
  3  4  1  0
  4  5  1  0
  5  6  2  0
  6  7  1  0
  7  8  2  0
  8  9  1  0
  9 10  2  0
 10 11  1  0
 11 12  1  0
 12 13  1  0
 13 14  2  0
 14 15  1  0
 15 16  2  0
 16 17  1  0
 17 18  1  0
 18 19  1  0
 19 20  1  0
 20 21  1  0
 21 22  1  0
 22 23  2  0
 22 24  1  0
 24 25  1  0
 25 26  1  0
 26 27  1  0
 27 28  1  0
 28 29  1  0
 29 30  1  0
 30 31  1  0
 31 32  1  0
 32 33  1  0
 33 34  1  0
 34 35  2  0
 34 36  1  0
 36 37  1  0
 37 38  1  0
 38 39  1  0
 39 40  1  0
 40 41  1  0
 41 42  2  0
 42 43  1  0
 43 44  2  0
 44 45  1  0
 45 46  1  0
 46 47  1  0
 47 48  1  0
 47 49  1  0
 49 50  1  0
 50 51  1  0
 51 52  1  0
 52 53  2  0
 53 54  1  0
 54 55  2  0
 55 56  1  0
 55 57  1  0
 57 58  2  0
 58 59  1  0
 16 60  1  0
 60 61  1  0
 60 62  2  0
 11  2  1  0
 10  5  1  0
 62  9  1  0
 62 13  1  0
 58 41  1  0
 57 44  1  0
 56 46  1  0
 56 51  2  0
M  END
>  <pIC50>  (414) 
6.74

>  <ChEMBL_ID>  (414) 
CHEMBL3134068

>  <document_journal>  (414) 
MedChemComm

>  <bao_endpoint>  (414) 
BAO_0000190

>  <potential_duplicate>  (414) 
False

>  <uo_units>  (414) 
UO_0000065

>  <canonical_smiles>  (414) 
CN1CCc2cccc3c2[C@H]1Cc4ccc(OCCCNC(=O)CCCCCCCCCCC(=O)NCCCOc5ccc6C[C@H]7N(C)CCc8cccc(c78)c6c5O)c(O)c34

>  <parent_molecule_chembl_id>  (414) 
CHEMBL3134068

>  <assay_type>  (414) 
B

>  <src_id>  (414) 
1

>  <ligand_efficiency>  (414) 
{u'le': u'0.15', u'bei': u'7.99', u'sei': u'5.45', u'lle': u'-2.15'}

>  <standard_flag>  (414) 
True

>  <molecule_chembl_id>  (414) 
CHEMBL3134068

>  <target_organism>  (414) 
Homo sapiens

>  <standard_units>  (414) 
nM

>  <record_id>  (414) 
1975967

>  <document_chembl_id>  (414) 
CHEMBL3132795

>  <bao_format>  (414) 
BAO_0000219

>  <data_validity_description>  (414) 
None

>  <activity_id>  (414) 
13965373

>  <standard_type>  (414) 
IC50

>  <target_chembl_id>  (414) 
CHEMBL217

>  <data_validity_comment>  (414) 
None

>  <published_value>  (414) 
183

>  <document_year>  (414) 
2013

>  <target_pref_name>  (414) 
Dopamine D2 receptor

>  <assay_chembl_id>  (414) 
CHEMBL3136959

>  <standard_relation>  (414) 
=

>  <assay_description>  (414) 
Displacement of [3H]spiperone from human recombinant dopamine D2L receptor expressed in CHOFlpIn cells after 3 hrs by liquid scintillation counting

>  <published_relation>  (414) 
=

>  <standard_value>  (414) 
183

>  <qudt_units>  (414) 
http://www.openphacts.org/units/Nanomolar

>  <target_tax_id>  (414) 
9606

>  <bao_label>  (414) 
cell-based format

>  <published_units>  (414) 
nM

>  <pchembl_value>  (414) 
6.74

>  <published_type>  (414) 
IC50

>  <activity_comment>  (414) 
None

$$$$

     RDKit          

 60 67  0  0  0  0  0  0  0  0999 V2000
    0.0000    0.0000    0.0000 C   0  0  0  0  0  0  0  0  0  0  0  0
    0.0000    0.0000    0.0000 N   0  0  0  0  0  0  0  0  0  0  0  0
    0.0000    0.0000    0.0000 C   0  0  0  0  0  0  0  0  0  0  0  0
    0.0000    0.0000    0.0000 C   0  0  0  0  0  0  0  0  0  0  0  0
    0.0000    0.0000    0.0000 C   0  0  0  0  0  0  0  0  0  0  0  0
    0.0000    0.0000    0.0000 C   0  0  0  0  0  0  0  0  0  0  0  0
    0.0000    0.0000    0.0000 C   0  0  0  0  0  0  0  0  0  0  0  0
    0.0000    0.0000    0.0000 C   0  0  0  0  0  0  0  0  0  0  0  0
    0.0000    0.0000    0.0000 C   0  0  0  0  0  0  0  0  0  0  0  0
    0.0000    0.0000    0.0000 C   0  0  0  0  0  0  0  0  0  0  0  0
    0.0000    0.0000    0.0000 C   0  0  0  0  0  0  0  0  0  0  0  0
    0.0000    0.0000    0.0000 C   0  0  0  0  0  0  0  0  0  0  0  0
    0.0000    0.0000    0.0000 C   0  0  0  0  0  0  0  0  0  0  0  0
    0.0000    0.0000    0.0000 C   0  0  0  0  0  0  0  0  0  0  0  0
    0.0000    0.0000    0.0000 C   0  0  0  0  0  0  0  0  0  0  0  0
    0.0000    0.0000    0.0000 C   0  0  0  0  0  0  0  0  0  0  0  0
    0.0000    0.0000    0.0000 O   0  0  0  0  0  0  0  0  0  0  0  0
    0.0000    0.0000    0.0000 C   0  0  0  0  0  0  0  0  0  0  0  0
    0.0000    0.0000    0.0000 C   0  0  0  0  0  0  0  0  0  0  0  0
    0.0000    0.0000    0.0000 C   0  0  0  0  0  0  0  0  0  0  0  0
    0.0000    0.0000    0.0000 N   0  0  0  0  0  0  0  0  0  0  0  0
    0.0000    0.0000    0.0000 C   0  0  0  0  0  0  0  0  0  0  0  0
    0.0000    0.0000    0.0000 O   0  0  0  0  0  0  0  0  0  0  0  0
    0.0000    0.0000    0.0000 C   0  0  0  0  0  0  0  0  0  0  0  0
    0.0000    0.0000    0.0000 C   0  0  0  0  0  0  0  0  0  0  0  0
    0.0000    0.0000    0.0000 C   0  0  0  0  0  0  0  0  0  0  0  0
    0.0000    0.0000    0.0000 C   0  0  0  0  0  0  0  0  0  0  0  0
    0.0000    0.0000    0.0000 C   0  0  0  0  0  0  0  0  0  0  0  0
    0.0000    0.0000    0.0000 C   0  0  0  0  0  0  0  0  0  0  0  0
    0.0000    0.0000    0.0000 C   0  0  0  0  0  0  0  0  0  0  0  0
    0.0000    0.0000    0.0000 C   0  0  0  0  0  0  0  0  0  0  0  0
    0.0000    0.0000    0.0000 C   0  0  0  0  0  0  0  0  0  0  0  0
    0.0000    0.0000    0.0000 O   0  0  0  0  0  0  0  0  0  0  0  0
    0.0000    0.0000    0.0000 N   0  0  0  0  0  0  0  0  0  0  0  0
    0.0000    0.0000    0.0000 C   0  0  0  0  0  0  0  0  0  0  0  0
    0.0000    0.0000    0.0000 C   0  0  0  0  0  0  0  0  0  0  0  0
    0.0000    0.0000    0.0000 C   0  0  0  0  0  0  0  0  0  0  0  0
    0.0000    0.0000    0.0000 O   0  0  0  0  0  0  0  0  0  0  0  0
    0.0000    0.0000    0.0000 C   0  0  0  0  0  0  0  0  0  0  0  0
    0.0000    0.0000    0.0000 C   0  0  0  0  0  0  0  0  0  0  0  0
    0.0000    0.0000    0.0000 C   0  0  0  0  0  0  0  0  0  0  0  0
    0.0000    0.0000    0.0000 C   0  0  0  0  0  0  0  0  0  0  0  0
    0.0000    0.0000    0.0000 C   0  0  0  0  0  0  0  0  0  0  0  0
    0.0000    0.0000    0.0000 C   0  0  0  0  0  0  0  0  0  0  0  0
    0.0000    0.0000    0.0000 N   0  0  0  0  0  0  0  0  0  0  0  0
    0.0000    0.0000    0.0000 C   0  0  0  0  0  0  0  0  0  0  0  0
    0.0000    0.0000    0.0000 C   0  0  0  0  0  0  0  0  0  0  0  0
    0.0000    0.0000    0.0000 C   0  0  0  0  0  0  0  0  0  0  0  0
    0.0000    0.0000    0.0000 C   0  0  0  0  0  0  0  0  0  0  0  0
    0.0000    0.0000    0.0000 C   0  0  0  0  0  0  0  0  0  0  0  0
    0.0000    0.0000    0.0000 C   0  0  0  0  0  0  0  0  0  0  0  0
    0.0000    0.0000    0.0000 C   0  0  0  0  0  0  0  0  0  0  0  0
    0.0000    0.0000    0.0000 C   0  0  0  0  0  0  0  0  0  0  0  0
    0.0000    0.0000    0.0000 C   0  0  0  0  0  0  0  0  0  0  0  0
    0.0000    0.0000    0.0000 C   0  0  0  0  0  0  0  0  0  0  0  0
    0.0000    0.0000    0.0000 C   0  0  0  0  0  0  0  0  0  0  0  0
    0.0000    0.0000    0.0000 O   0  0  0  0  0  0  0  0  0  0  0  0
    0.0000    0.0000    0.0000 C   0  0  0  0  0  0  0  0  0  0  0  0
    0.0000    0.0000    0.0000 O   0  0  0  0  0  0  0  0  0  0  0  0
    0.0000    0.0000    0.0000 C   0  0  0  0  0  0  0  0  0  0  0  0
  1  2  1  0
  2  3  1  0
  3  4  1  0
  4  5  1  0
  5  6  2  0
  6  7  1  0
  7  8  2  0
  8  9  1  0
  9 10  2  0
 10 11  1  0
 11 12  1  0
 12 13  1  0
 13 14  2  0
 14 15  1  0
 15 16  2  0
 16 17  1  0
 17 18  1  0
 18 19  1  0
 19 20  1  0
 20 21  1  0
 21 22  1  0
 22 23  2  0
 22 24  1  0
 24 25  1  0
 25 26  1  0
 26 27  1  0
 27 28  1  0
 28 29  1  0
 29 30  1  0
 30 31  1  0
 31 32  1  0
 32 33  2  0
 32 34  1  0
 34 35  1  0
 35 36  1  0
 36 37  1  0
 37 38  1  0
 38 39  1  0
 39 40  2  0
 40 41  1  0
 41 42  2  0
 42 43  1  0
 43 44  1  0
 44 45  1  0
 45 46  1  0
 45 47  1  0
 47 48  1  0
 48 49  1  0
 49 50  1  0
 50 51  2  0
 51 52  1  0
 52 53  2  0
 53 54  1  0
 53 55  1  0
 55 56  2  0
 56 57  1  0
 16 58  1  0
 58 59  1  0
 58 60  2  0
 11  2  1  0
 10  5  1  0
 60  9  1  0
 60 13  1  0
 56 39  1  0
 55 42  1  0
 54 44  1  0
 54 49  2  0
M  END
>  <pIC50>  (415) 
5.87

>  <ChEMBL_ID>  (415) 
CHEMBL3134067

>  <document_journal>  (415) 
MedChemComm

>  <bao_endpoint>  (415) 
BAO_0000190

>  <potential_duplicate>  (415) 
False

>  <uo_units>  (415) 
UO_0000065

>  <canonical_smiles>  (415) 
CN1CCc2cccc3c2[C@H]1Cc4ccc(OCCCNC(=O)CCCCCCCCC(=O)NCCCOc5ccc6C[C@H]7N(C)CCc8cccc(c78)c6c5O)c(O)c34

>  <parent_molecule_chembl_id>  (415) 
CHEMBL3134067

>  <assay_type>  (415) 
B

>  <src_id>  (415) 
1

>  <ligand_efficiency>  (415) 
{u'le': u'0.13', u'bei': u'7.2', u'sei': u'4.75', u'lle': u'-2.11'}

>  <standard_flag>  (415) 
True

>  <molecule_chembl_id>  (415) 
CHEMBL3134067

>  <target_organism>  (415) 
Homo sapiens

>  <standard_units>  (415) 
nM

>  <record_id>  (415) 
1975966

>  <document_chembl_id>  (415) 
CHEMBL3132795

>  <bao_format>  (415) 
BAO_0000219

>  <data_validity_description>  (415) 
None

>  <activity_id>  (415) 
13965374

>  <standard_type>  (415) 
IC50

>  <target_chembl_id>  (415) 
CHEMBL217

>  <data_validity_comment>  (415) 
None

>  <published_value>  (415) 
1350

>  <document_year>  (415) 
2013

>  <target_pref_name>  (415) 
Dopamine D2 receptor

>  <assay_chembl_id>  (415) 
CHEMBL3136959

>  <standard_relation>  (415) 
=

>  <assay_description>  (415) 
Displacement of [3H]spiperone from human recombinant dopamine D2L receptor expressed in CHOFlpIn cells after 3 hrs by liquid scintillation counting

>  <published_relation>  (415) 
=

>  <standard_value>  (415) 
1350

>  <qudt_units>  (415) 
http://www.openphacts.org/units/Nanomolar

>  <target_tax_id>  (415) 
9606

>  <bao_label>  (415) 
cell-based format

>  <published_units>  (415) 
nM

>  <pchembl_value>  (415) 
5.87

>  <published_type>  (415) 
IC50

>  <activity_comment>  (415) 
None

$$$$

     RDKit          

 58 65  0  0  0  0  0  0  0  0999 V2000
    0.0000    0.0000    0.0000 C   0  0  0  0  0  0  0  0  0  0  0  0
    0.0000    0.0000    0.0000 N   0  0  0  0  0  0  0  0  0  0  0  0
    0.0000    0.0000    0.0000 C   0  0  0  0  0  0  0  0  0  0  0  0
    0.0000    0.0000    0.0000 C   0  0  0  0  0  0  0  0  0  0  0  0
    0.0000    0.0000    0.0000 C   0  0  0  0  0  0  0  0  0  0  0  0
    0.0000    0.0000    0.0000 C   0  0  0  0  0  0  0  0  0  0  0  0
    0.0000    0.0000    0.0000 C   0  0  0  0  0  0  0  0  0  0  0  0
    0.0000    0.0000    0.0000 C   0  0  0  0  0  0  0  0  0  0  0  0
    0.0000    0.0000    0.0000 C   0  0  0  0  0  0  0  0  0  0  0  0
    0.0000    0.0000    0.0000 C   0  0  0  0  0  0  0  0  0  0  0  0
    0.0000    0.0000    0.0000 C   0  0  0  0  0  0  0  0  0  0  0  0
    0.0000    0.0000    0.0000 C   0  0  0  0  0  0  0  0  0  0  0  0
    0.0000    0.0000    0.0000 C   0  0  0  0  0  0  0  0  0  0  0  0
    0.0000    0.0000    0.0000 C   0  0  0  0  0  0  0  0  0  0  0  0
    0.0000    0.0000    0.0000 C   0  0  0  0  0  0  0  0  0  0  0  0
    0.0000    0.0000    0.0000 C   0  0  0  0  0  0  0  0  0  0  0  0
    0.0000    0.0000    0.0000 O   0  0  0  0  0  0  0  0  0  0  0  0
    0.0000    0.0000    0.0000 C   0  0  0  0  0  0  0  0  0  0  0  0
    0.0000    0.0000    0.0000 C   0  0  0  0  0  0  0  0  0  0  0  0
    0.0000    0.0000    0.0000 C   0  0  0  0  0  0  0  0  0  0  0  0
    0.0000    0.0000    0.0000 N   0  0  0  0  0  0  0  0  0  0  0  0
    0.0000    0.0000    0.0000 C   0  0  0  0  0  0  0  0  0  0  0  0
    0.0000    0.0000    0.0000 O   0  0  0  0  0  0  0  0  0  0  0  0
    0.0000    0.0000    0.0000 C   0  0  0  0  0  0  0  0  0  0  0  0
    0.0000    0.0000    0.0000 C   0  0  0  0  0  0  0  0  0  0  0  0
    0.0000    0.0000    0.0000 C   0  0  0  0  0  0  0  0  0  0  0  0
    0.0000    0.0000    0.0000 C   0  0  0  0  0  0  0  0  0  0  0  0
    0.0000    0.0000    0.0000 C   0  0  0  0  0  0  0  0  0  0  0  0
    0.0000    0.0000    0.0000 C   0  0  0  0  0  0  0  0  0  0  0  0
    0.0000    0.0000    0.0000 C   0  0  0  0  0  0  0  0  0  0  0  0
    0.0000    0.0000    0.0000 O   0  0  0  0  0  0  0  0  0  0  0  0
    0.0000    0.0000    0.0000 N   0  0  0  0  0  0  0  0  0  0  0  0
    0.0000    0.0000    0.0000 C   0  0  0  0  0  0  0  0  0  0  0  0
    0.0000    0.0000    0.0000 C   0  0  0  0  0  0  0  0  0  0  0  0
    0.0000    0.0000    0.0000 C   0  0  0  0  0  0  0  0  0  0  0  0
    0.0000    0.0000    0.0000 O   0  0  0  0  0  0  0  0  0  0  0  0
    0.0000    0.0000    0.0000 C   0  0  0  0  0  0  0  0  0  0  0  0
    0.0000    0.0000    0.0000 C   0  0  0  0  0  0  0  0  0  0  0  0
    0.0000    0.0000    0.0000 C   0  0  0  0  0  0  0  0  0  0  0  0
    0.0000    0.0000    0.0000 C   0  0  0  0  0  0  0  0  0  0  0  0
    0.0000    0.0000    0.0000 C   0  0  0  0  0  0  0  0  0  0  0  0
    0.0000    0.0000    0.0000 C   0  0  0  0  0  0  0  0  0  0  0  0
    0.0000    0.0000    0.0000 N   0  0  0  0  0  0  0  0  0  0  0  0
    0.0000    0.0000    0.0000 C   0  0  0  0  0  0  0  0  0  0  0  0
    0.0000    0.0000    0.0000 C   0  0  0  0  0  0  0  0  0  0  0  0
    0.0000    0.0000    0.0000 C   0  0  0  0  0  0  0  0  0  0  0  0
    0.0000    0.0000    0.0000 C   0  0  0  0  0  0  0  0  0  0  0  0
    0.0000    0.0000    0.0000 C   0  0  0  0  0  0  0  0  0  0  0  0
    0.0000    0.0000    0.0000 C   0  0  0  0  0  0  0  0  0  0  0  0
    0.0000    0.0000    0.0000 C   0  0  0  0  0  0  0  0  0  0  0  0
    0.0000    0.0000    0.0000 C   0  0  0  0  0  0  0  0  0  0  0  0
    0.0000    0.0000    0.0000 C   0  0  0  0  0  0  0  0  0  0  0  0
    0.0000    0.0000    0.0000 C   0  0  0  0  0  0  0  0  0  0  0  0
    0.0000    0.0000    0.0000 C   0  0  0  0  0  0  0  0  0  0  0  0
    0.0000    0.0000    0.0000 O   0  0  0  0  0  0  0  0  0  0  0  0
    0.0000    0.0000    0.0000 C   0  0  0  0  0  0  0  0  0  0  0  0
    0.0000    0.0000    0.0000 O   0  0  0  0  0  0  0  0  0  0  0  0
    0.0000    0.0000    0.0000 C   0  0  0  0  0  0  0  0  0  0  0  0
  1  2  1  0
  2  3  1  0
  3  4  1  0
  4  5  1  0
  5  6  2  0
  6  7  1  0
  7  8  2  0
  8  9  1  0
  9 10  2  0
 10 11  1  0
 11 12  1  0
 12 13  1  0
 13 14  2  0
 14 15  1  0
 15 16  2  0
 16 17  1  0
 17 18  1  0
 18 19  1  0
 19 20  1  0
 20 21  1  0
 21 22  1  0
 22 23  2  0
 22 24  1  0
 24 25  1  0
 25 26  1  0
 26 27  1  0
 27 28  1  0
 28 29  1  0
 29 30  1  0
 30 31  2  0
 30 32  1  0
 32 33  1  0
 33 34  1  0
 34 35  1  0
 35 36  1  0
 36 37  1  0
 37 38  2  0
 38 39  1  0
 39 40  2  0
 40 41  1  0
 41 42  1  0
 42 43  1  0
 43 44  1  0
 43 45  1  0
 45 46  1  0
 46 47  1  0
 47 48  1  0
 48 49  2  0
 49 50  1  0
 50 51  2  0
 51 52  1  0
 51 53  1  0
 53 54  2  0
 54 55  1  0
 16 56  1  0
 56 57  1  0
 56 58  2  0
 11  2  1  0
 10  5  1  0
 58  9  1  0
 58 13  1  0
 54 37  1  0
 53 40  1  0
 52 42  1  0
 52 47  2  0
M  END
>  <pIC50>  (416) 
5.44

>  <ChEMBL_ID>  (416) 
CHEMBL3134066

>  <document_journal>  (416) 
MedChemComm

>  <bao_endpoint>  (416) 
BAO_0000190

>  <potential_duplicate>  (416) 
False

>  <uo_units>  (416) 
UO_0000065

>  <canonical_smiles>  (416) 
CN1CCc2cccc3c2[C@H]1Cc4ccc(OCCCNC(=O)CCCCCCC(=O)NCCCOc5ccc6C[C@H]7N(C)CCc8cccc(c78)c6c5O)c(O)c34

>  <parent_molecule_chembl_id>  (416) 
CHEMBL3134066

>  <assay_type>  (416) 
B

>  <src_id>  (416) 
1

>  <ligand_efficiency>  (416) 
{u'le': u'0.13', u'bei': u'6.92', u'sei': u'4.4', u'lle': u'-1.63'}

>  <standard_flag>  (416) 
True

>  <molecule_chembl_id>  (416) 
CHEMBL3134066

>  <target_organism>  (416) 
Homo sapiens

>  <standard_units>  (416) 
nM

>  <record_id>  (416) 
1975965

>  <document_chembl_id>  (416) 
CHEMBL3132795

>  <bao_format>  (416) 
BAO_0000219

>  <data_validity_description>  (416) 
None

>  <activity_id>  (416) 
13965375

>  <standard_type>  (416) 
IC50

>  <target_chembl_id>  (416) 
CHEMBL217

>  <data_validity_comment>  (416) 
None

>  <published_value>  (416) 
3600

>  <document_year>  (416) 
2013

>  <target_pref_name>  (416) 
Dopamine D2 receptor

>  <assay_chembl_id>  (416) 
CHEMBL3136959

>  <standard_relation>  (416) 
=

>  <assay_description>  (416) 
Displacement of [3H]spiperone from human recombinant dopamine D2L receptor expressed in CHOFlpIn cells after 3 hrs by liquid scintillation counting

>  <published_relation>  (416) 
=

>  <standard_value>  (416) 
3600

>  <qudt_units>  (416) 
http://www.openphacts.org/units/Nanomolar

>  <target_tax_id>  (416) 
9606

>  <bao_label>  (416) 
cell-based format

>  <published_units>  (416) 
nM

>  <pchembl_value>  (416) 
5.44

>  <published_type>  (416) 
IC50

>  <activity_comment>  (416) 
None

$$$$

     RDKit          

 56 63  0  0  0  0  0  0  0  0999 V2000
    0.0000    0.0000    0.0000 C   0  0  0  0  0  0  0  0  0  0  0  0
    0.0000    0.0000    0.0000 N   0  0  0  0  0  0  0  0  0  0  0  0
    0.0000    0.0000    0.0000 C   0  0  0  0  0  0  0  0  0  0  0  0
    0.0000    0.0000    0.0000 C   0  0  0  0  0  0  0  0  0  0  0  0
    0.0000    0.0000    0.0000 C   0  0  0  0  0  0  0  0  0  0  0  0
    0.0000    0.0000    0.0000 C   0  0  0  0  0  0  0  0  0  0  0  0
    0.0000    0.0000    0.0000 C   0  0  0  0  0  0  0  0  0  0  0  0
    0.0000    0.0000    0.0000 C   0  0  0  0  0  0  0  0  0  0  0  0
    0.0000    0.0000    0.0000 C   0  0  0  0  0  0  0  0  0  0  0  0
    0.0000    0.0000    0.0000 C   0  0  0  0  0  0  0  0  0  0  0  0
    0.0000    0.0000    0.0000 C   0  0  0  0  0  0  0  0  0  0  0  0
    0.0000    0.0000    0.0000 C   0  0  0  0  0  0  0  0  0  0  0  0
    0.0000    0.0000    0.0000 C   0  0  0  0  0  0  0  0  0  0  0  0
    0.0000    0.0000    0.0000 C   0  0  0  0  0  0  0  0  0  0  0  0
    0.0000    0.0000    0.0000 C   0  0  0  0  0  0  0  0  0  0  0  0
    0.0000    0.0000    0.0000 C   0  0  0  0  0  0  0  0  0  0  0  0
    0.0000    0.0000    0.0000 O   0  0  0  0  0  0  0  0  0  0  0  0
    0.0000    0.0000    0.0000 C   0  0  0  0  0  0  0  0  0  0  0  0
    0.0000    0.0000    0.0000 C   0  0  0  0  0  0  0  0  0  0  0  0
    0.0000    0.0000    0.0000 C   0  0  0  0  0  0  0  0  0  0  0  0
    0.0000    0.0000    0.0000 N   0  0  0  0  0  0  0  0  0  0  0  0
    0.0000    0.0000    0.0000 C   0  0  0  0  0  0  0  0  0  0  0  0
    0.0000    0.0000    0.0000 O   0  0  0  0  0  0  0  0  0  0  0  0
    0.0000    0.0000    0.0000 C   0  0  0  0  0  0  0  0  0  0  0  0
    0.0000    0.0000    0.0000 C   0  0  0  0  0  0  0  0  0  0  0  0
    0.0000    0.0000    0.0000 C   0  0  0  0  0  0  0  0  0  0  0  0
    0.0000    0.0000    0.0000 C   0  0  0  0  0  0  0  0  0  0  0  0
    0.0000    0.0000    0.0000 C   0  0  0  0  0  0  0  0  0  0  0  0
    0.0000    0.0000    0.0000 O   0  0  0  0  0  0  0  0  0  0  0  0
    0.0000    0.0000    0.0000 N   0  0  0  0  0  0  0  0  0  0  0  0
    0.0000    0.0000    0.0000 C   0  0  0  0  0  0  0  0  0  0  0  0
    0.0000    0.0000    0.0000 C   0  0  0  0  0  0  0  0  0  0  0  0
    0.0000    0.0000    0.0000 C   0  0  0  0  0  0  0  0  0  0  0  0
    0.0000    0.0000    0.0000 O   0  0  0  0  0  0  0  0  0  0  0  0
    0.0000    0.0000    0.0000 C   0  0  0  0  0  0  0  0  0  0  0  0
    0.0000    0.0000    0.0000 C   0  0  0  0  0  0  0  0  0  0  0  0
    0.0000    0.0000    0.0000 C   0  0  0  0  0  0  0  0  0  0  0  0
    0.0000    0.0000    0.0000 C   0  0  0  0  0  0  0  0  0  0  0  0
    0.0000    0.0000    0.0000 C   0  0  0  0  0  0  0  0  0  0  0  0
    0.0000    0.0000    0.0000 C   0  0  0  0  0  0  0  0  0  0  0  0
    0.0000    0.0000    0.0000 N   0  0  0  0  0  0  0  0  0  0  0  0
    0.0000    0.0000    0.0000 C   0  0  0  0  0  0  0  0  0  0  0  0
    0.0000    0.0000    0.0000 C   0  0  0  0  0  0  0  0  0  0  0  0
    0.0000    0.0000    0.0000 C   0  0  0  0  0  0  0  0  0  0  0  0
    0.0000    0.0000    0.0000 C   0  0  0  0  0  0  0  0  0  0  0  0
    0.0000    0.0000    0.0000 C   0  0  0  0  0  0  0  0  0  0  0  0
    0.0000    0.0000    0.0000 C   0  0  0  0  0  0  0  0  0  0  0  0
    0.0000    0.0000    0.0000 C   0  0  0  0  0  0  0  0  0  0  0  0
    0.0000    0.0000    0.0000 C   0  0  0  0  0  0  0  0  0  0  0  0
    0.0000    0.0000    0.0000 C   0  0  0  0  0  0  0  0  0  0  0  0
    0.0000    0.0000    0.0000 C   0  0  0  0  0  0  0  0  0  0  0  0
    0.0000    0.0000    0.0000 C   0  0  0  0  0  0  0  0  0  0  0  0
    0.0000    0.0000    0.0000 O   0  0  0  0  0  0  0  0  0  0  0  0
    0.0000    0.0000    0.0000 C   0  0  0  0  0  0  0  0  0  0  0  0
    0.0000    0.0000    0.0000 O   0  0  0  0  0  0  0  0  0  0  0  0
    0.0000    0.0000    0.0000 C   0  0  0  0  0  0  0  0  0  0  0  0
  1  2  1  0
  2  3  1  0
  3  4  1  0
  4  5  1  0
  5  6  2  0
  6  7  1  0
  7  8  2  0
  8  9  1  0
  9 10  2  0
 10 11  1  0
 11 12  1  0
 12 13  1  0
 13 14  2  0
 14 15  1  0
 15 16  2  0
 16 17  1  0
 17 18  1  0
 18 19  1  0
 19 20  1  0
 20 21  1  0
 21 22  1  0
 22 23  2  0
 22 24  1  0
 24 25  1  0
 25 26  1  0
 26 27  1  0
 27 28  1  0
 28 29  2  0
 28 30  1  0
 30 31  1  0
 31 32  1  0
 32 33  1  0
 33 34  1  0
 34 35  1  0
 35 36  2  0
 36 37  1  0
 37 38  2  0
 38 39  1  0
 39 40  1  0
 40 41  1  0
 41 42  1  0
 41 43  1  0
 43 44  1  0
 44 45  1  0
 45 46  1  0
 46 47  2  0
 47 48  1  0
 48 49  2  0
 49 50  1  0
 49 51  1  0
 51 52  2  0
 52 53  1  0
 16 54  1  0
 54 55  1  0
 54 56  2  0
 11  2  1  0
 10  5  1  0
 56  9  1  0
 56 13  1  0
 52 35  1  0
 51 38  1  0
 50 40  1  0
 50 45  2  0
M  END
>  <pIC50>  (417) 
5.27

>  <ChEMBL_ID>  (417) 
CHEMBL3134065

>  <document_journal>  (417) 
MedChemComm

>  <bao_endpoint>  (417) 
BAO_0000190

>  <potential_duplicate>  (417) 
False

>  <uo_units>  (417) 
UO_0000065

>  <canonical_smiles>  (417) 
CN1CCc2cccc3c2[C@H]1Cc4ccc(OCCCNC(=O)CCCCC(=O)NCCCOc5ccc6C[C@H]7N(C)CCc8cccc(c78)c6c5O)c(O)c34

>  <parent_molecule_chembl_id>  (417) 
CHEMBL3134065

>  <assay_type>  (417) 
B

>  <src_id>  (417) 
1

>  <ligand_efficiency>  (417) 
{u'le': u'0.13', u'bei': u'6.95', u'sei': u'4.27', u'lle': u'-0.89'}

>  <standard_flag>  (417) 
True

>  <molecule_chembl_id>  (417) 
CHEMBL3134065

>  <target_organism>  (417) 
Homo sapiens

>  <standard_units>  (417) 
nM

>  <record_id>  (417) 
1975964

>  <document_chembl_id>  (417) 
CHEMBL3132795

>  <bao_format>  (417) 
BAO_0000219

>  <data_validity_description>  (417) 
None

>  <activity_id>  (417) 
13965376

>  <standard_type>  (417) 
IC50

>  <target_chembl_id>  (417) 
CHEMBL217

>  <data_validity_comment>  (417) 
None

>  <published_value>  (417) 
5320

>  <document_year>  (417) 
2013

>  <target_pref_name>  (417) 
Dopamine D2 receptor

>  <assay_chembl_id>  (417) 
CHEMBL3136959

>  <standard_relation>  (417) 
=

>  <assay_description>  (417) 
Displacement of [3H]spiperone from human recombinant dopamine D2L receptor expressed in CHOFlpIn cells after 3 hrs by liquid scintillation counting

>  <published_relation>  (417) 
=

>  <standard_value>  (417) 
5320

>  <qudt_units>  (417) 
http://www.openphacts.org/units/Nanomolar

>  <target_tax_id>  (417) 
9606

>  <bao_label>  (417) 
cell-based format

>  <published_units>  (417) 
nM

>  <pchembl_value>  (417) 
5.27

>  <published_type>  (417) 
IC50

>  <activity_comment>  (417) 
None

$$$$

     RDKit          

 54 61  0  0  0  0  0  0  0  0999 V2000
    0.0000    0.0000    0.0000 C   0  0  0  0  0  0  0  0  0  0  0  0
    0.0000    0.0000    0.0000 N   0  0  0  0  0  0  0  0  0  0  0  0
    0.0000    0.0000    0.0000 C   0  0  0  0  0  0  0  0  0  0  0  0
    0.0000    0.0000    0.0000 C   0  0  0  0  0  0  0  0  0  0  0  0
    0.0000    0.0000    0.0000 C   0  0  0  0  0  0  0  0  0  0  0  0
    0.0000    0.0000    0.0000 C   0  0  0  0  0  0  0  0  0  0  0  0
    0.0000    0.0000    0.0000 C   0  0  0  0  0  0  0  0  0  0  0  0
    0.0000    0.0000    0.0000 C   0  0  0  0  0  0  0  0  0  0  0  0
    0.0000    0.0000    0.0000 C   0  0  0  0  0  0  0  0  0  0  0  0
    0.0000    0.0000    0.0000 C   0  0  0  0  0  0  0  0  0  0  0  0
    0.0000    0.0000    0.0000 C   0  0  0  0  0  0  0  0  0  0  0  0
    0.0000    0.0000    0.0000 C   0  0  0  0  0  0  0  0  0  0  0  0
    0.0000    0.0000    0.0000 C   0  0  0  0  0  0  0  0  0  0  0  0
    0.0000    0.0000    0.0000 C   0  0  0  0  0  0  0  0  0  0  0  0
    0.0000    0.0000    0.0000 C   0  0  0  0  0  0  0  0  0  0  0  0
    0.0000    0.0000    0.0000 C   0  0  0  0  0  0  0  0  0  0  0  0
    0.0000    0.0000    0.0000 O   0  0  0  0  0  0  0  0  0  0  0  0
    0.0000    0.0000    0.0000 C   0  0  0  0  0  0  0  0  0  0  0  0
    0.0000    0.0000    0.0000 C   0  0  0  0  0  0  0  0  0  0  0  0
    0.0000    0.0000    0.0000 C   0  0  0  0  0  0  0  0  0  0  0  0
    0.0000    0.0000    0.0000 N   0  0  0  0  0  0  0  0  0  0  0  0
    0.0000    0.0000    0.0000 C   0  0  0  0  0  0  0  0  0  0  0  0
    0.0000    0.0000    0.0000 O   0  0  0  0  0  0  0  0  0  0  0  0
    0.0000    0.0000    0.0000 C   0  0  0  0  0  0  0  0  0  0  0  0
    0.0000    0.0000    0.0000 C   0  0  0  0  0  0  0  0  0  0  0  0
    0.0000    0.0000    0.0000 C   0  0  0  0  0  0  0  0  0  0  0  0
    0.0000    0.0000    0.0000 O   0  0  0  0  0  0  0  0  0  0  0  0
    0.0000    0.0000    0.0000 N   0  0  0  0  0  0  0  0  0  0  0  0
    0.0000    0.0000    0.0000 C   0  0  0  0  0  0  0  0  0  0  0  0
    0.0000    0.0000    0.0000 C   0  0  0  0  0  0  0  0  0  0  0  0
    0.0000    0.0000    0.0000 C   0  0  0  0  0  0  0  0  0  0  0  0
    0.0000    0.0000    0.0000 O   0  0  0  0  0  0  0  0  0  0  0  0
    0.0000    0.0000    0.0000 C   0  0  0  0  0  0  0  0  0  0  0  0
    0.0000    0.0000    0.0000 C   0  0  0  0  0  0  0  0  0  0  0  0
    0.0000    0.0000    0.0000 C   0  0  0  0  0  0  0  0  0  0  0  0
    0.0000    0.0000    0.0000 C   0  0  0  0  0  0  0  0  0  0  0  0
    0.0000    0.0000    0.0000 C   0  0  0  0  0  0  0  0  0  0  0  0
    0.0000    0.0000    0.0000 C   0  0  0  0  0  0  0  0  0  0  0  0
    0.0000    0.0000    0.0000 N   0  0  0  0  0  0  0  0  0  0  0  0
    0.0000    0.0000    0.0000 C   0  0  0  0  0  0  0  0  0  0  0  0
    0.0000    0.0000    0.0000 C   0  0  0  0  0  0  0  0  0  0  0  0
    0.0000    0.0000    0.0000 C   0  0  0  0  0  0  0  0  0  0  0  0
    0.0000    0.0000    0.0000 C   0  0  0  0  0  0  0  0  0  0  0  0
    0.0000    0.0000    0.0000 C   0  0  0  0  0  0  0  0  0  0  0  0
    0.0000    0.0000    0.0000 C   0  0  0  0  0  0  0  0  0  0  0  0
    0.0000    0.0000    0.0000 C   0  0  0  0  0  0  0  0  0  0  0  0
    0.0000    0.0000    0.0000 C   0  0  0  0  0  0  0  0  0  0  0  0
    0.0000    0.0000    0.0000 C   0  0  0  0  0  0  0  0  0  0  0  0
    0.0000    0.0000    0.0000 C   0  0  0  0  0  0  0  0  0  0  0  0
    0.0000    0.0000    0.0000 C   0  0  0  0  0  0  0  0  0  0  0  0
    0.0000    0.0000    0.0000 O   0  0  0  0  0  0  0  0  0  0  0  0
    0.0000    0.0000    0.0000 C   0  0  0  0  0  0  0  0  0  0  0  0
    0.0000    0.0000    0.0000 O   0  0  0  0  0  0  0  0  0  0  0  0
    0.0000    0.0000    0.0000 C   0  0  0  0  0  0  0  0  0  0  0  0
  1  2  1  0
  2  3  1  0
  3  4  1  0
  4  5  1  0
  5  6  2  0
  6  7  1  0
  7  8  2  0
  8  9  1  0
  9 10  2  0
 10 11  1  0
 11 12  1  0
 12 13  1  0
 13 14  2  0
 14 15  1  0
 15 16  2  0
 16 17  1  0
 17 18  1  0
 18 19  1  0
 19 20  1  0
 20 21  1  0
 21 22  1  0
 22 23  2  0
 22 24  1  0
 24 25  1  0
 25 26  1  0
 26 27  2  0
 26 28  1  0
 28 29  1  0
 29 30  1  0
 30 31  1  0
 31 32  1  0
 32 33  1  0
 33 34  2  0
 34 35  1  0
 35 36  2  0
 36 37  1  0
 37 38  1  0
 38 39  1  0
 39 40  1  0
 39 41  1  0
 41 42  1  0
 42 43  1  0
 43 44  1  0
 44 45  2  0
 45 46  1  0
 46 47  2  0
 47 48  1  0
 47 49  1  0
 49 50  2  0
 50 51  1  0
 16 52  1  0
 52 53  1  0
 52 54  2  0
 11  2  1  0
 10  5  1  0
 54  9  1  0
 54 13  1  0
 50 33  1  0
 49 36  1  0
 48 38  1  0
 48 43  2  0
M  END
>  <pIC50>  (418) 
5.36

>  <ChEMBL_ID>  (418) 
CHEMBL3134064

>  <document_journal>  (418) 
MedChemComm

>  <bao_endpoint>  (418) 
BAO_0000190

>  <potential_duplicate>  (418) 
False

>  <uo_units>  (418) 
UO_0000065

>  <canonical_smiles>  (418) 
CN1CCc2cccc3c2[C@H]1Cc4ccc(OCCCNC(=O)CCC(=O)NCCCOc5ccc6C[C@H]7N(C)CCc8cccc(c78)c6c5O)c(O)c34

>  <parent_molecule_chembl_id>  (418) 
CHEMBL3134064

>  <assay_type>  (418) 
B

>  <src_id>  (418) 
1

>  <ligand_efficiency>  (418) 
{u'le': u'0.14', u'bei': u'7.33', u'sei': u'4.34', u'lle': u'0.12'}

>  <standard_flag>  (418) 
True

>  <molecule_chembl_id>  (418) 
CHEMBL3134064

>  <target_organism>  (418) 
Homo sapiens

>  <standard_units>  (418) 
nM

>  <record_id>  (418) 
1975963

>  <document_chembl_id>  (418) 
CHEMBL3132795

>  <bao_format>  (418) 
BAO_0000219

>  <data_validity_description>  (418) 
None

>  <activity_id>  (418) 
13965377

>  <standard_type>  (418) 
IC50

>  <target_chembl_id>  (418) 
CHEMBL217

>  <data_validity_comment>  (418) 
None

>  <published_value>  (418) 
4360

>  <document_year>  (418) 
2013

>  <target_pref_name>  (418) 
Dopamine D2 receptor

>  <assay_chembl_id>  (418) 
CHEMBL3136959

>  <standard_relation>  (418) 
=

>  <assay_description>  (418) 
Displacement of [3H]spiperone from human recombinant dopamine D2L receptor expressed in CHOFlpIn cells after 3 hrs by liquid scintillation counting

>  <published_relation>  (418) 
=

>  <standard_value>  (418) 
4360

>  <qudt_units>  (418) 
http://www.openphacts.org/units/Nanomolar

>  <target_tax_id>  (418) 
9606

>  <bao_label>  (418) 
cell-based format

>  <published_units>  (418) 
nM

>  <pchembl_value>  (418) 
5.36

>  <published_type>  (418) 
IC50

>  <activity_comment>  (418) 
None

$$$$

     RDKit          

 39 42  0  0  0  0  0  0  0  0999 V2000
    0.0000    0.0000    0.0000 C   0  0  0  0  0  0  0  0  0  0  0  0
    0.0000    0.0000    0.0000 N   0  0  0  0  0  0  0  0  0  0  0  0
    0.0000    0.0000    0.0000 C   0  0  0  0  0  0  0  0  0  0  0  0
    0.0000    0.0000    0.0000 C   0  0  0  0  0  0  0  0  0  0  0  0
    0.0000    0.0000    0.0000 C   0  0  0  0  0  0  0  0  0  0  0  0
    0.0000    0.0000    0.0000 C   0  0  0  0  0  0  0  0  0  0  0  0
    0.0000    0.0000    0.0000 C   0  0  0  0  0  0  0  0  0  0  0  0
    0.0000    0.0000    0.0000 C   0  0  0  0  0  0  0  0  0  0  0  0
    0.0000    0.0000    0.0000 C   0  0  0  0  0  0  0  0  0  0  0  0
    0.0000    0.0000    0.0000 C   0  0  0  0  0  0  0  0  0  0  0  0
    0.0000    0.0000    0.0000 C   0  0  0  0  0  0  0  0  0  0  0  0
    0.0000    0.0000    0.0000 C   0  0  0  0  0  0  0  0  0  0  0  0
    0.0000    0.0000    0.0000 C   0  0  0  0  0  0  0  0  0  0  0  0
    0.0000    0.0000    0.0000 C   0  0  0  0  0  0  0  0  0  0  0  0
    0.0000    0.0000    0.0000 C   0  0  0  0  0  0  0  0  0  0  0  0
    0.0000    0.0000    0.0000 C   0  0  0  0  0  0  0  0  0  0  0  0
    0.0000    0.0000    0.0000 O   0  0  0  0  0  0  0  0  0  0  0  0
    0.0000    0.0000    0.0000 C   0  0  0  0  0  0  0  0  0  0  0  0
    0.0000    0.0000    0.0000 C   0  0  0  0  0  0  0  0  0  0  0  0
    0.0000    0.0000    0.0000 C   0  0  0  0  0  0  0  0  0  0  0  0
    0.0000    0.0000    0.0000 N   0  0  0  0  0  0  0  0  0  0  0  0
    0.0000    0.0000    0.0000 C   0  0  0  0  0  0  0  0  0  0  0  0
    0.0000    0.0000    0.0000 O   0  0  0  0  0  0  0  0  0  0  0  0
    0.0000    0.0000    0.0000 C   0  0  0  0  0  0  0  0  0  0  0  0
    0.0000    0.0000    0.0000 C   0  0  0  0  0  0  0  0  0  0  0  0
    0.0000    0.0000    0.0000 C   0  0  0  0  0  0  0  0  0  0  0  0
    0.0000    0.0000    0.0000 C   0  0  0  0  0  0  0  0  0  0  0  0
    0.0000    0.0000    0.0000 C   0  0  0  0  0  0  0  0  0  0  0  0
    0.0000    0.0000    0.0000 N   0  0  0  0  0  0  0  0  0  0  0  0
    0.0000    0.0000    0.0000 C   0  0  0  0  0  0  0  0  0  0  0  0
    0.0000    0.0000    0.0000 O   0  0  0  0  0  0  0  0  0  0  0  0
    0.0000    0.0000    0.0000 O   0  0  0  0  0  0  0  0  0  0  0  0
    0.0000    0.0000    0.0000 C   0  0  0  0  0  0  0  0  0  0  0  0
    0.0000    0.0000    0.0000 C   0  0  0  0  0  0  0  0  0  0  0  0
    0.0000    0.0000    0.0000 C   0  0  0  0  0  0  0  0  0  0  0  0
    0.0000    0.0000    0.0000 C   0  0  0  0  0  0  0  0  0  0  0  0
    0.0000    0.0000    0.0000 C   0  0  0  0  0  0  0  0  0  0  0  0
    0.0000    0.0000    0.0000 O   0  0  0  0  0  0  0  0  0  0  0  0
    0.0000    0.0000    0.0000 C   0  0  0  0  0  0  0  0  0  0  0  0
  1  2  1  0
  2  3  1  0
  3  4  1  0
  4  5  1  0
  5  6  2  0
  6  7  1  0
  7  8  2  0
  8  9  1  0
  9 10  2  0
 10 11  1  0
 11 12  1  0
 12 13  1  0
 13 14  2  0
 14 15  1  0
 15 16  2  0
 16 17  1  0
 17 18  1  0
 18 19  1  0
 19 20  1  0
 20 21  1  0
 21 22  1  0
 22 23  2  0
 22 24  1  0
 24 25  1  0
 25 26  1  0
 26 27  1  0
 27 28  1  0
 28 29  1  0
 29 30  1  0
 30 31  2  0
 30 32  1  0
 32 33  1  0
 33 34  1  0
 33 35  1  0
 33 36  1  0
 16 37  1  0
 37 38  1  0
 37 39  2  0
 11  2  1  0
 10  5  1  0
 39  9  1  0
 39 13  1  0
M  END
>  <pIC50>  (419) 
5.18

>  <ChEMBL_ID>  (419) 
CHEMBL3134063

>  <document_journal>  (419) 
MedChemComm

>  <bao_endpoint>  (419) 
BAO_0000190

>  <potential_duplicate>  (419) 
False

>  <uo_units>  (419) 
UO_0000065

>  <canonical_smiles>  (419) 
CN1CCc2cccc3c2[C@H]1Cc4ccc(OCCCNC(=O)CCCCCNC(=O)OC(C)(C)C)c(O)c34

>  <parent_molecule_chembl_id>  (419) 
CHEMBL3134063

>  <assay_type>  (419) 
B

>  <src_id>  (419) 
1

>  <ligand_efficiency>  (419) 
{u'le': u'0.18', u'bei': u'9.64', u'sei': u'5.18', u'lle': u'0.47'}

>  <standard_flag>  (419) 
True

>  <molecule_chembl_id>  (419) 
CHEMBL3134063

>  <target_organism>  (419) 
Homo sapiens

>  <standard_units>  (419) 
nM

>  <record_id>  (419) 
1975962

>  <document_chembl_id>  (419) 
CHEMBL3132795

>  <bao_format>  (419) 
BAO_0000219

>  <data_validity_description>  (419) 
None

>  <activity_id>  (419) 
13965378

>  <standard_type>  (419) 
IC50

>  <target_chembl_id>  (419) 
CHEMBL217

>  <data_validity_comment>  (419) 
None

>  <published_value>  (419) 
6540

>  <document_year>  (419) 
2013

>  <target_pref_name>  (419) 
Dopamine D2 receptor

>  <assay_chembl_id>  (419) 
CHEMBL3136959

>  <standard_relation>  (419) 
=

>  <assay_description>  (419) 
Displacement of [3H]spiperone from human recombinant dopamine D2L receptor expressed in CHOFlpIn cells after 3 hrs by liquid scintillation counting

>  <published_relation>  (419) 
=

>  <standard_value>  (419) 
6540

>  <qudt_units>  (419) 
http://www.openphacts.org/units/Nanomolar

>  <target_tax_id>  (419) 
9606

>  <bao_label>  (419) 
cell-based format

>  <published_units>  (419) 
nM

>  <pchembl_value>  (419) 
5.18

>  <published_type>  (419) 
IC50

>  <activity_comment>  (419) 
None

$$$$

     RDKit          

 20 23  0  0  0  0  0  0  0  0999 V2000
    0.0000    0.0000    0.0000 C   0  0  0  0  0  0  0  0  0  0  0  0
    0.0000    0.0000    0.0000 N   0  0  0  0  0  0  0  0  0  0  0  0
    0.0000    0.0000    0.0000 C   0  0  0  0  0  0  0  0  0  0  0  0
    0.0000    0.0000    0.0000 C   0  0  0  0  0  0  0  0  0  0  0  0
    0.0000    0.0000    0.0000 C   0  0  0  0  0  0  0  0  0  0  0  0
    0.0000    0.0000    0.0000 C   0  0  0  0  0  0  0  0  0  0  0  0
    0.0000    0.0000    0.0000 C   0  0  0  0  0  0  0  0  0  0  0  0
    0.0000    0.0000    0.0000 C   0  0  0  0  0  0  0  0  0  0  0  0
    0.0000    0.0000    0.0000 C   0  0  0  0  0  0  0  0  0  0  0  0
    0.0000    0.0000    0.0000 C   0  0  0  0  0  0  0  0  0  0  0  0
    0.0000    0.0000    0.0000 C   0  0  0  0  0  0  0  0  0  0  0  0
    0.0000    0.0000    0.0000 C   0  0  0  0  0  0  0  0  0  0  0  0
    0.0000    0.0000    0.0000 C   0  0  0  0  0  0  0  0  0  0  0  0
    0.0000    0.0000    0.0000 C   0  0  0  0  0  0  0  0  0  0  0  0
    0.0000    0.0000    0.0000 C   0  0  0  0  0  0  0  0  0  0  0  0
    0.0000    0.0000    0.0000 C   0  0  0  0  0  0  0  0  0  0  0  0
    0.0000    0.0000    0.0000 O   0  0  0  0  0  0  0  0  0  0  0  0
    0.0000    0.0000    0.0000 C   0  0  0  0  0  0  0  0  0  0  0  0
    0.0000    0.0000    0.0000 O   0  0  0  0  0  0  0  0  0  0  0  0
    0.0000    0.0000    0.0000 C   0  0  0  0  0  0  0  0  0  0  0  0
  1  2  1  0
  2  3  1  0
  3  4  1  0
  4  5  1  0
  5  6  2  0
  6  7  1  0
  7  8  2  0
  8  9  1  0
  9 10  2  0
 10 11  1  0
 11 12  1  0
 12 13  1  0
 13 14  2  0
 14 15  1  0
 15 16  2  0
 16 17  1  0
 16 18  1  0
 18 19  1  0
 18 20  2  0
 11  2  1  0
 10  5  1  0
 20  9  1  0
 20 13  1  0
M  END
>  <pIC50>  (420) 
7.655

>  <ChEMBL_ID>  (420) 
CHEMBL53

>  <document_journal>  (420) 
MedChemComm

>  <bao_endpoint>  (420) 
BAO_0000190

>  <potential_duplicate>  (420) 
False

>  <uo_units>  (420) 
UO_0000065

>  <canonical_smiles>  (420) 
CN1CCc2cccc3c2[C@H]1Cc4ccc(O)c(O)c34

>  <parent_molecule_chembl_id>  (420) 
CHEMBL53

>  <assay_type>  (420) 
B

>  <src_id>  (420) 
1

>  <ligand_efficiency>  (420) 
{u'le': u'0.47', u'bei': u'25.93', u'sei': u'15.86', u'lle': u'3.81'}

>  <standard_flag>  (420) 
True

>  <molecule_chembl_id>  (420) 
CHEMBL53

>  <target_organism>  (420) 
Homo sapiens

>  <standard_units>  (420) 
nM

>  <record_id>  (420) 
1975959

>  <document_chembl_id>  (420) 
CHEMBL3132795

>  <bao_format>  (420) 
BAO_0000219

>  <data_validity_description>  (420) 
None

>  <activity_id>  (420) 
13965379

>  <standard_type>  (420) 
IC50

>  <target_chembl_id>  (420) 
CHEMBL217

>  <data_validity_comment>  (420) 
None

>  <published_value>  (420) 
117

>  <document_year>  (420) 
2013

>  <target_pref_name>  (420) 
Dopamine D2 receptor

>  <assay_chembl_id>  (420) 
CHEMBL3136959

>  <standard_relation>  (420) 
=

>  <assay_description>  (420) 
Displacement of [3H]spiperone from human recombinant dopamine D2L receptor expressed in CHOFlpIn cells after 3 hrs by liquid scintillation counting

>  <published_relation>  (420) 
=

>  <standard_value>  (420) 
117

>  <qudt_units>  (420) 
http://www.openphacts.org/units/Nanomolar

>  <target_tax_id>  (420) 
9606

>  <bao_label>  (420) 
cell-based format

>  <published_units>  (420) 
nM

>  <pchembl_value>  (420) 
6.93

>  <published_type>  (420) 
IC50

>  <activity_comment>  (420) 
None

$$$$

     RDKit          

 28 30  0  0  0  0  0  0  0  0999 V2000
    0.0000    0.0000    0.0000 C   0  0  0  0  0  0  0  0  0  0  0  0
    0.0000    0.0000    0.0000 N   0  0  0  0  0  0  0  0  0  0  0  0
    0.0000    0.0000    0.0000 C   0  0  0  0  0  0  0  0  0  0  0  0
    0.0000    0.0000    0.0000 C   0  0  0  0  0  0  0  0  0  0  0  0
    0.0000    0.0000    0.0000 O   0  0  0  0  0  0  0  0  0  0  0  0
    0.0000    0.0000    0.0000 N   0  0  0  0  0  0  0  0  0  0  0  0
    0.0000    0.0000    0.0000 C   0  0  0  0  0  0  0  0  0  0  0  0
    0.0000    0.0000    0.0000 C   0  0  0  0  0  0  0  0  0  0  0  0
    0.0000    0.0000    0.0000 C   0  0  0  0  0  0  0  0  0  0  0  0
    0.0000    0.0000    0.0000 C   0  0  0  0  0  0  0  0  0  0  0  0
    0.0000    0.0000    0.0000 C   0  0  0  0  0  0  0  0  0  0  0  0
    0.0000    0.0000    0.0000 C   0  0  0  0  0  0  0  0  0  0  0  0
    0.0000    0.0000    0.0000 N   0  0  0  0  0  0  0  0  0  0  0  0
    0.0000    0.0000    0.0000 C   0  0  0  0  0  0  0  0  0  0  0  0
    0.0000    0.0000    0.0000 C   0  0  0  0  0  0  0  0  0  0  0  0
    0.0000    0.0000    0.0000 N   0  0  0  0  0  0  0  0  0  0  0  0
    0.0000    0.0000    0.0000 C   0  0  0  0  0  0  0  0  0  0  0  0
    0.0000    0.0000    0.0000 C   0  0  0  0  0  0  0  0  0  0  0  0
    0.0000    0.0000    0.0000 C   0  0  0  0  0  0  0  0  0  0  0  0
    0.0000    0.0000    0.0000 C   0  0  0  0  0  0  0  0  0  0  0  0
    0.0000    0.0000    0.0000 C   0  0  0  0  0  0  0  0  0  0  0  0
    0.0000    0.0000    0.0000 C   0  0  0  0  0  0  0  0  0  0  0  0
    0.0000    0.0000    0.0000 C   0  0  0  0  0  0  0  0  0  0  0  0
    0.0000    0.0000    0.0000 Cl  0  0  0  0  0  0  0  0  0  0  0  0
    0.0000    0.0000    0.0000 C   0  0  0  0  0  0  0  0  0  0  0  0
    0.0000    0.0000    0.0000 Cl  0  0  0  0  0  0  0  0  0  0  0  0
    0.0000    0.0000    0.0000 C   0  0  0  0  0  0  0  0  0  0  0  0
    0.0000    0.0000    0.0000 C   0  0  0  0  0  0  0  0  0  0  0  0
  1  2  1  0
  2  3  1  0
  2  4  1  0
  4  5  2  0
  4  6  1  0
  6  7  1  0
  7  8  1  0
  8  9  1  0
  9 10  1  0
 10 11  1  0
 11 12  1  0
 12 13  1  0
 13 14  1  0
 14 15  1  0
 15 16  1  0
 16 17  1  0
 17 18  1  0
 16 19  1  0
 19 20  2  0
 20 21  1  0
 21 22  2  0
 22 23  1  0
 23 24  1  0
 23 25  2  0
 25 26  1  0
 10 27  1  0
 27 28  1  0
 28  7  1  0
 18 13  1  0
 25 19  1  0
M  END
>  <pIC50>  (421) 
8.775

>  <ChEMBL_ID>  (421) 
CHEMBL2028019

>  <document_journal>  (421) 
J. Med. Chem.

>  <bao_endpoint>  (421) 
BAO_0000190

>  <potential_duplicate>  (421) 
False

>  <uo_units>  (421) 
UO_0000065

>  <canonical_smiles>  (421) 
CN(C)C(=O)N[C@@H]1CC[C@@H](CCN2CCN(CC2)c3cccc(Cl)c3Cl)CC1

>  <parent_molecule_chembl_id>  (421) 
CHEMBL2028019

>  <assay_type>  (421) 
B

>  <src_id>  (421) 
1

>  <ligand_efficiency>  (421) 
{u'le': u'0.43', u'bei': u'20.54', u'sei': u'22.62', u'lle': u'4.23'}

>  <standard_flag>  (421) 
True

>  <molecule_chembl_id>  (421) 
CHEMBL2028019

>  <target_organism>  (421) 
Homo sapiens

>  <standard_units>  (421) 
nM

>  <record_id>  (421) 
2114715

>  <document_chembl_id>  (421) 
CHEMBL3286313

>  <bao_format>  (421) 
BAO_0000219

>  <data_validity_description>  (421) 
None

>  <activity_id>  (421) 
14734344

>  <standard_type>  (421) 
IC50

>  <target_chembl_id>  (421) 
CHEMBL217

>  <data_validity_comment>  (421) 
None

>  <published_value>  (421) 
8.78

>  <document_year>  (421) 
2014

>  <target_pref_name>  (421) 
Dopamine D2 receptor

>  <assay_chembl_id>  (421) 
CHEMBL3293231

>  <standard_relation>  (421) 
=

>  <assay_description>  (421) 
Antagonist activity at human dopamine D2 short receptor transiently expressed in HEK293 cells assessed as inhibition of beta-arrestin recruitment after 6 hrs by chemiluminescence assay

>  <published_relation>  (421) 
=

>  <standard_value>  (421) 
1.66

>  <qudt_units>  (421) 
http://www.openphacts.org/units/Nanomolar

>  <target_tax_id>  (421) 
9606

>  <bao_label>  (421) 
cell-based format

>  <published_units>  (421) 
None

>  <pchembl_value>  (421) 
8.78

>  <published_type>  (421) 
pIC50

>  <activity_comment>  (421) 
None

$$$$

     RDKit          

 30 33  0  0  0  0  0  0  0  0999 V2000
    0.0000    0.0000    0.0000 Cl  0  0  0  0  0  0  0  0  0  0  0  0
    0.0000    0.0000    0.0000 C   0  0  0  0  0  0  0  0  0  0  0  0
    0.0000    0.0000    0.0000 C   0  0  0  0  0  0  0  0  0  0  0  0
    0.0000    0.0000    0.0000 C   0  0  0  0  0  0  0  0  0  0  0  0
    0.0000    0.0000    0.0000 C   0  0  0  0  0  0  0  0  0  0  0  0
    0.0000    0.0000    0.0000 C   0  0  0  0  0  0  0  0  0  0  0  0
    0.0000    0.0000    0.0000 N   0  0  0  0  0  0  0  0  0  0  0  0
    0.0000    0.0000    0.0000 C   0  0  0  0  0  0  0  0  0  0  0  0
    0.0000    0.0000    0.0000 C   0  0  0  0  0  0  0  0  0  0  0  0
    0.0000    0.0000    0.0000 N   0  0  0  0  0  0  0  0  0  0  0  0
    0.0000    0.0000    0.0000 C   0  0  0  0  0  0  0  0  0  0  0  0
    0.0000    0.0000    0.0000 C   0  0  0  0  0  0  0  0  0  0  0  0
    0.0000    0.0000    0.0000 C   0  0  0  0  0  0  0  0  0  0  0  0
    0.0000    0.0000    0.0000 C   0  0  0  0  0  0  0  0  0  0  0  0
    0.0000    0.0000    0.0000 O   0  0  0  0  0  0  0  0  0  0  0  0
    0.0000    0.0000    0.0000 C   0  0  0  0  0  0  0  0  0  0  0  0
    0.0000    0.0000    0.0000 C   0  0  0  0  0  0  0  0  0  0  0  0
    0.0000    0.0000    0.0000 C   0  0  0  0  0  0  0  0  0  0  0  0
    0.0000    0.0000    0.0000 N   0  0  0  0  0  0  0  0  0  0  0  0
    0.0000    0.0000    0.0000 N   0  0  0  0  0  0  0  0  0  0  0  0
    0.0000    0.0000    0.0000 C   0  0  0  0  0  0  0  0  0  0  0  0
    0.0000    0.0000    0.0000 C   0  0  0  0  0  0  0  0  0  0  0  0
    0.0000    0.0000    0.0000 C   0  0  0  0  0  0  0  0  0  0  0  0
    0.0000    0.0000    0.0000 O   0  0  0  0  0  0  0  0  0  0  0  0
    0.0000    0.0000    0.0000 C   0  0  0  0  0  0  0  0  0  0  0  0
    0.0000    0.0000    0.0000 C   0  0  0  0  0  0  0  0  0  0  0  0
    0.0000    0.0000    0.0000 C   0  0  0  0  0  0  0  0  0  0  0  0
    0.0000    0.0000    0.0000 C   0  0  0  0  0  0  0  0  0  0  0  0
    0.0000    0.0000    0.0000 C   0  0  0  0  0  0  0  0  0  0  0  0
    0.0000    0.0000    0.0000 Cl  0  0  0  0  0  0  0  0  0  0  0  0
  1  2  1  0
  2  3  2  0
  3  4  1  0
  4  5  2  0
  5  6  1  0
  6  7  1  0
  7  8  1  0
  8  9  1  0
  9 10  1  0
 10 11  1  0
 11 12  1  0
 12 13  1  0
 13 14  1  0
 14 15  1  0
 15 16  1  0
 16 17  1  0
 17 18  2  0
 18 19  1  0
 19 20  1  0
 20 21  2  0
 21 22  1  0
 22 23  1  0
 23 24  2  0
 22 25  2  0
 25 26  1  0
 10 27  1  0
 27 28  1  0
  6 29  2  0
 29 30  1  0
 29  2  1  0
 28  7  1  0
 26 16  2  0
 25 19  1  0
M  END
>  <pIC50>  (422) 
6.44

>  <ChEMBL_ID>  (422) 
CHEMBL3287397

>  <document_journal>  (422) 
J. Med. Chem.

>  <bao_endpoint>  (422) 
BAO_0000190

>  <potential_duplicate>  (422) 
False

>  <uo_units>  (422) 
UO_0000065

>  <canonical_smiles>  (422) 
Clc1cccc(N2CCN(CCCCOc3ccn4ncc(C=O)c4c3)CC2)c1Cl

>  <parent_molecule_chembl_id>  (422) 
CHEMBL3287397

>  <assay_type>  (422) 
B

>  <src_id>  (422) 
1

>  <ligand_efficiency>  (422) 
{u'le': u'0.29', u'bei': u'14.4', u'sei': u'12.86', u'lle': u'1.9'}

>  <standard_flag>  (422) 
True

>  <molecule_chembl_id>  (422) 
CHEMBL3287397

>  <target_organism>  (422) 
Homo sapiens

>  <standard_units>  (422) 
nM

>  <record_id>  (422) 
2114723

>  <document_chembl_id>  (422) 
CHEMBL3286313

>  <bao_format>  (422) 
BAO_0000219

>  <data_validity_description>  (422) 
None

>  <activity_id>  (422) 
14734345

>  <standard_type>  (422) 
IC50

>  <target_chembl_id>  (422) 
CHEMBL217

>  <data_validity_comment>  (422) 
None

>  <published_value>  (422) 
6.44

>  <document_year>  (422) 
2014

>  <target_pref_name>  (422) 
Dopamine D2 receptor

>  <assay_chembl_id>  (422) 
CHEMBL3293231

>  <standard_relation>  (422) 
=

>  <assay_description>  (422) 
Antagonist activity at human dopamine D2 short receptor transiently expressed in HEK293 cells assessed as inhibition of beta-arrestin recruitment after 6 hrs by chemiluminescence assay

>  <published_relation>  (422) 
=

>  <standard_value>  (422) 
363.08

>  <qudt_units>  (422) 
http://www.openphacts.org/units/Nanomolar

>  <target_tax_id>  (422) 
9606

>  <bao_label>  (422) 
cell-based format

>  <published_units>  (422) 
None

>  <pchembl_value>  (422) 
6.44

>  <published_type>  (422) 
pIC50

>  <activity_comment>  (422) 
None

$$$$

     RDKit          

 30 33  0  0  0  0  0  0  0  0999 V2000
    0.0000    0.0000    0.0000 Cl  0  0  0  0  0  0  0  0  0  0  0  0
    0.0000    0.0000    0.0000 C   0  0  0  0  0  0  0  0  0  0  0  0
    0.0000    0.0000    0.0000 C   0  0  0  0  0  0  0  0  0  0  0  0
    0.0000    0.0000    0.0000 C   0  0  0  0  0  0  0  0  0  0  0  0
    0.0000    0.0000    0.0000 C   0  0  0  0  0  0  0  0  0  0  0  0
    0.0000    0.0000    0.0000 C   0  0  0  0  0  0  0  0  0  0  0  0
    0.0000    0.0000    0.0000 N   0  0  0  0  0  0  0  0  0  0  0  0
    0.0000    0.0000    0.0000 C   0  0  0  0  0  0  0  0  0  0  0  0
    0.0000    0.0000    0.0000 C   0  0  0  0  0  0  0  0  0  0  0  0
    0.0000    0.0000    0.0000 N   0  0  0  0  0  0  0  0  0  0  0  0
    0.0000    0.0000    0.0000 C   0  0  0  0  0  0  0  0  0  0  0  0
    0.0000    0.0000    0.0000 C   0  0  0  0  0  0  0  0  0  0  0  0
    0.0000    0.0000    0.0000 C   0  0  0  0  0  0  0  0  0  0  0  0
    0.0000    0.0000    0.0000 C   0  0  0  0  0  0  0  0  0  0  0  0
    0.0000    0.0000    0.0000 O   0  0  0  0  0  0  0  0  0  0  0  0
    0.0000    0.0000    0.0000 C   0  0  0  0  0  0  0  0  0  0  0  0
    0.0000    0.0000    0.0000 C   0  0  0  0  0  0  0  0  0  0  0  0
    0.0000    0.0000    0.0000 C   0  0  0  0  0  0  0  0  0  0  0  0
    0.0000    0.0000    0.0000 N   0  0  0  0  0  0  0  0  0  0  0  0
    0.0000    0.0000    0.0000 N   0  0  0  0  0  0  0  0  0  0  0  0
    0.0000    0.0000    0.0000 C   0  0  0  0  0  0  0  0  0  0  0  0
    0.0000    0.0000    0.0000 C   0  0  0  0  0  0  0  0  0  0  0  0
    0.0000    0.0000    0.0000 O   0  0  0  0  0  0  0  0  0  0  0  0
    0.0000    0.0000    0.0000 C   0  0  0  0  0  0  0  0  0  0  0  0
    0.0000    0.0000    0.0000 C   0  0  0  0  0  0  0  0  0  0  0  0
    0.0000    0.0000    0.0000 C   0  0  0  0  0  0  0  0  0  0  0  0
    0.0000    0.0000    0.0000 C   0  0  0  0  0  0  0  0  0  0  0  0
    0.0000    0.0000    0.0000 C   0  0  0  0  0  0  0  0  0  0  0  0
    0.0000    0.0000    0.0000 C   0  0  0  0  0  0  0  0  0  0  0  0
    0.0000    0.0000    0.0000 Cl  0  0  0  0  0  0  0  0  0  0  0  0
  1  2  1  0
  2  3  2  0
  3  4  1  0
  4  5  2  0
  5  6  1  0
  6  7  1  0
  7  8  1  0
  8  9  1  0
  9 10  1  0
 10 11  1  0
 11 12  1  0
 12 13  1  0
 13 14  1  0
 14 15  1  0
 15 16  1  0
 16 17  1  0
 17 18  2  0
 18 19  1  0
 19 20  1  0
 20 21  2  0
 21 22  1  0
 22 23  2  0
 21 24  1  0
 24 25  2  0
 25 26  1  0
 10 27  1  0
 27 28  1  0
  6 29  2  0
 29 30  1  0
 29  2  1  0
 28  7  1  0
 26 16  2  0
 25 19  1  0
M  END
>  <pIC50>  (423) 
7.6

>  <ChEMBL_ID>  (423) 
CHEMBL3287402

>  <document_journal>  (423) 
J. Med. Chem.

>  <bao_endpoint>  (423) 
BAO_0000190

>  <potential_duplicate>  (423) 
False

>  <uo_units>  (423) 
UO_0000065

>  <canonical_smiles>  (423) 
Clc1cccc(N2CCN(CCCCOc3ccn4nc(C=O)cc4c3)CC2)c1Cl

>  <parent_molecule_chembl_id>  (423) 
CHEMBL3287402

>  <assay_type>  (423) 
B

>  <src_id>  (423) 
1

>  <ligand_efficiency>  (423) 
{u'le': u'0.34', u'bei': u'16.85', u'sei': u'15.06', u'lle': u'2.57'}

>  <standard_flag>  (423) 
True

>  <molecule_chembl_id>  (423) 
CHEMBL3287402

>  <target_organism>  (423) 
Homo sapiens

>  <standard_units>  (423) 
nM

>  <record_id>  (423) 
2114728

>  <document_chembl_id>  (423) 
CHEMBL3286313

>  <bao_format>  (423) 
BAO_0000219

>  <data_validity_description>  (423) 
None

>  <activity_id>  (423) 
14734346

>  <standard_type>  (423) 
IC50

>  <target_chembl_id>  (423) 
CHEMBL217

>  <data_validity_comment>  (423) 
None

>  <published_value>  (423) 
7.54

>  <document_year>  (423) 
2014

>  <target_pref_name>  (423) 
Dopamine D2 receptor

>  <assay_chembl_id>  (423) 
CHEMBL3293231

>  <standard_relation>  (423) 
=

>  <assay_description>  (423) 
Antagonist activity at human dopamine D2 short receptor transiently expressed in HEK293 cells assessed as inhibition of beta-arrestin recruitment after 6 hrs by chemiluminescence assay

>  <published_relation>  (423) 
=

>  <standard_value>  (423) 
28.84

>  <qudt_units>  (423) 
http://www.openphacts.org/units/Nanomolar

>  <target_tax_id>  (423) 
9606

>  <bao_label>  (423) 
cell-based format

>  <published_units>  (423) 
None

>  <pchembl_value>  (423) 
7.54

>  <published_type>  (423) 
pIC50

>  <activity_comment>  (423) 
None

$$$$

     RDKit          

 31 34  0  0  0  0  0  0  0  0999 V2000
    0.0000    0.0000    0.0000 O   0  0  0  0  0  0  0  0  0  0  0  0
    0.0000    0.0000    0.0000 N   0  0  0  0  0  0  0  0  0  0  0  0
    0.0000    0.0000    0.0000 C   0  0  0  0  0  0  0  0  0  0  0  0
    0.0000    0.0000    0.0000 C   0  0  0  0  0  0  0  0  0  0  0  0
    0.0000    0.0000    0.0000 C   0  0  0  0  0  0  0  0  0  0  0  0
    0.0000    0.0000    0.0000 N   0  0  0  0  0  0  0  0  0  0  0  0
    0.0000    0.0000    0.0000 N   0  0  0  0  0  0  0  0  0  0  0  0
    0.0000    0.0000    0.0000 C   0  0  0  0  0  0  0  0  0  0  0  0
    0.0000    0.0000    0.0000 C   0  0  0  0  0  0  0  0  0  0  0  0
    0.0000    0.0000    0.0000 C   0  0  0  0  0  0  0  0  0  0  0  0
    0.0000    0.0000    0.0000 O   0  0  0  0  0  0  0  0  0  0  0  0
    0.0000    0.0000    0.0000 C   0  0  0  0  0  0  0  0  0  0  0  0
    0.0000    0.0000    0.0000 C   0  0  0  0  0  0  0  0  0  0  0  0
    0.0000    0.0000    0.0000 C   0  0  0  0  0  0  0  0  0  0  0  0
    0.0000    0.0000    0.0000 C   0  0  0  0  0  0  0  0  0  0  0  0
    0.0000    0.0000    0.0000 N   0  0  0  0  0  0  0  0  0  0  0  0
    0.0000    0.0000    0.0000 C   0  0  0  0  0  0  0  0  0  0  0  0
    0.0000    0.0000    0.0000 C   0  0  0  0  0  0  0  0  0  0  0  0
    0.0000    0.0000    0.0000 N   0  0  0  0  0  0  0  0  0  0  0  0
    0.0000    0.0000    0.0000 C   0  0  0  0  0  0  0  0  0  0  0  0
    0.0000    0.0000    0.0000 C   0  0  0  0  0  0  0  0  0  0  0  0
    0.0000    0.0000    0.0000 C   0  0  0  0  0  0  0  0  0  0  0  0
    0.0000    0.0000    0.0000 C   0  0  0  0  0  0  0  0  0  0  0  0
    0.0000    0.0000    0.0000 C   0  0  0  0  0  0  0  0  0  0  0  0
    0.0000    0.0000    0.0000 C   0  0  0  0  0  0  0  0  0  0  0  0
    0.0000    0.0000    0.0000 C   0  0  0  0  0  0  0  0  0  0  0  0
    0.0000    0.0000    0.0000 Cl  0  0  0  0  0  0  0  0  0  0  0  0
    0.0000    0.0000    0.0000 C   0  0  0  0  0  0  0  0  0  0  0  0
    0.0000    0.0000    0.0000 Cl  0  0  0  0  0  0  0  0  0  0  0  0
    0.0000    0.0000    0.0000 C   0  0  0  0  0  0  0  0  0  0  0  0
    0.0000    0.0000    0.0000 C   0  0  0  0  0  0  0  0  0  0  0  0
  1  2  1  0
  2  3  2  0
  3  4  1  0
  4  5  1  0
  5  6  2  0
  6  7  1  0
  7  8  1  0
  8  9  2  0
  9 10  1  0
 10 11  1  0
 11 12  1  0
 12 13  1  0
 13 14  1  0
 14 15  1  0
 15 16  1  0
 16 17  1  0
 17 18  1  0
 18 19  1  0
 19 20  1  0
 20 21  1  0
 19 22  1  0
 22 23  2  0
 23 24  1  0
 24 25  2  0
 25 26  1  0
 26 27  1  0
 26 28  2  0
 28 29  1  0
 10 30  2  0
 30 31  1  0
 31  4  2  0
 31  7  1  0
 21 16  1  0
 28 22  1  0
M  END
>  <pIC50>  (424) 
8.42

>  <ChEMBL_ID>  (424) 
CHEMBL3287403

>  <document_journal>  (424) 
J. Med. Chem.

>  <bao_endpoint>  (424) 
BAO_0000190

>  <potential_duplicate>  (424) 
False

>  <uo_units>  (424) 
UO_0000065

>  <canonical_smiles>  (424) 
O\N=C\c1cnn2ccc(OCCCCN3CCN(CC3)c4cccc(Cl)c4Cl)cc12

>  <parent_molecule_chembl_id>  (424) 
CHEMBL3287403

>  <assay_type>  (424) 
B

>  <src_id>  (424) 
1

>  <ligand_efficiency>  (424) 
{u'le': u'0.37', u'bei': u'18.21', u'sei': u'12.84', u'lle': u'3.81'}

>  <standard_flag>  (424) 
True

>  <molecule_chembl_id>  (424) 
CHEMBL3287403

>  <target_organism>  (424) 
Homo sapiens

>  <standard_units>  (424) 
nM

>  <record_id>  (424) 
2114730

>  <document_chembl_id>  (424) 
CHEMBL3286313

>  <bao_format>  (424) 
BAO_0000219

>  <data_validity_description>  (424) 
None

>  <activity_id>  (424) 
14734347

>  <standard_type>  (424) 
IC50

>  <target_chembl_id>  (424) 
CHEMBL217

>  <data_validity_comment>  (424) 
None

>  <published_value>  (424) 
8.42

>  <document_year>  (424) 
2014

>  <target_pref_name>  (424) 
Dopamine D2 receptor

>  <assay_chembl_id>  (424) 
CHEMBL3293231

>  <standard_relation>  (424) 
=

>  <assay_description>  (424) 
Antagonist activity at human dopamine D2 short receptor transiently expressed in HEK293 cells assessed as inhibition of beta-arrestin recruitment after 6 hrs by chemiluminescence assay

>  <published_relation>  (424) 
=

>  <standard_value>  (424) 
3.802

>  <qudt_units>  (424) 
http://www.openphacts.org/units/Nanomolar

>  <target_tax_id>  (424) 
9606

>  <bao_label>  (424) 
cell-based format

>  <published_units>  (424) 
None

>  <pchembl_value>  (424) 
8.42

>  <published_type>  (424) 
pIC50

>  <activity_comment>  (424) 
None

$$$$

     RDKit          

 27 31  0  0  0  0  0  0  0  0999 V2000
    0.0000    0.0000    0.0000 C   0  0  0  0  0  0  0  0  0  0  0  0
    0.0000    0.0000    0.0000 C   0  0  0  0  0  0  0  0  0  0  0  0
    0.0000    0.0000    0.0000 C   0  0  0  0  0  0  0  0  0  0  0  0
    0.0000    0.0000    0.0000 C   0  0  0  0  0  0  0  0  0  0  0  0
    0.0000    0.0000    0.0000 C   0  0  0  0  0  0  0  0  0  0  0  0
    0.0000    0.0000    0.0000 O   0  0  0  0  0  0  0  0  0  0  0  0
    0.0000    0.0000    0.0000 C   0  0  0  0  0  0  0  0  0  0  0  0
    0.0000    0.0000    0.0000 C   0  0  0  0  0  0  0  0  0  0  0  0
    0.0000    0.0000    0.0000 N   0  0  0  0  0  0  0  0  0  0  0  0
    0.0000    0.0000    0.0000 C   0  0  0  0  0  0  0  0  0  0  0  0
    0.0000    0.0000    0.0000 C   0  0  0  0  0  0  0  0  0  0  0  0
    0.0000    0.0000    0.0000 C   0  0  0  0  0  0  0  0  0  0  0  0
    0.0000    0.0000    0.0000 C   0  0  0  0  0  0  0  0  0  0  0  0
    0.0000    0.0000    0.0000 C   0  0  0  0  0  0  0  0  0  0  0  0
    0.0000    0.0000    0.0000 C   0  0  0  0  0  0  0  0  0  0  0  0
    0.0000    0.0000    0.0000 C   0  0  0  0  0  0  0  0  0  0  0  0
    0.0000    0.0000    0.0000 C   0  0  0  0  0  0  0  0  0  0  0  0
    0.0000    0.0000    0.0000 C   0  0  0  0  0  0  0  0  0  0  0  0
    0.0000    0.0000    0.0000 C   0  0  0  0  0  0  0  0  0  0  0  0
    0.0000    0.0000    0.0000 C   0  0  0  0  0  0  0  0  0  0  0  0
    0.0000    0.0000    0.0000 C   0  0  0  0  0  0  0  0  0  0  0  0
    0.0000    0.0000    0.0000 C   0  0  0  0  0  0  0  0  0  0  0  0
    0.0000    0.0000    0.0000 C   0  0  0  0  0  0  0  0  0  0  0  0
    0.0000    0.0000    0.0000 C   0  0  0  0  0  0  0  0  0  0  0  0
    0.0000    0.0000    0.0000 C   0  0  0  0  0  0  0  0  0  0  0  0
    0.0000    0.0000    0.0000 C   0  0  0  0  0  0  0  0  0  0  0  0
    0.0000    0.0000    0.0000 C   0  0  0  0  0  0  0  0  0  0  0  0
  1  2  1  0
  2  3  1  0
  2  4  1  0
  2  5  1  0
  5  6  1  0
  5  7  1  0
  7  8  1  0
  8  9  1  0
  9 10  1  0
 10 11  1  0
 11 12  1  0
 12 13  2  0
 13 14  1  0
 14 15  2  0
 15 16  1  0
 16 17  2  0
 17 18  1  0
 18 19  1  0
 19 20  1  0
 20 21  2  0
 21 22  1  0
 22 23  2  0
 23 24  1  0
 24 25  1  0
 25 26  1  0
 24 27  2  0
 26  5  1  0
 25  9  1  0
 27 11  1  0
 17 12  1  0
 27 20  1  0
M  END
>  <pIC50>  (425) 
8.63

>  <ChEMBL_ID>  (425) 
CHEMBL8514

>  <document_journal>  (425) 
J. Med. Chem.

>  <bao_endpoint>  (425) 
BAO_0000190

>  <potential_duplicate>  (425) 
False

>  <uo_units>  (425) 
UO_0000065

>  <canonical_smiles>  (425) 
CC(C)(C)[C@]1(O)CCN2C[C@H]3c4ccccc4CCc5cccc([C@@H]2C1)c35

>  <parent_molecule_chembl_id>  (425) 
CHEMBL8514

>  <assay_type>  (425) 
F

>  <src_id>  (425) 
1

>  <ligand_efficiency>  (425) 
None

>  <standard_flag>  (425) 
True

>  <molecule_chembl_id>  (425) 
CHEMBL8514

>  <target_organism>  (425) 
Homo sapiens

>  <standard_units>  (425) 
nM

>  <record_id>  (425) 
2117908

>  <document_chembl_id>  (425) 
CHEMBL3286108

>  <bao_format>  (425) 
BAO_0000019

>  <data_validity_description>  (425) 
None

>  <activity_id>  (425) 
14738674

>  <standard_type>  (425) 
IC50

>  <target_chembl_id>  (425) 
CHEMBL217

>  <data_validity_comment>  (425) 
None

>  <published_value>  (425) 
5

>  <document_year>  (425) 
2014

>  <target_pref_name>  (425) 
Dopamine D2 receptor

>  <assay_chembl_id>  (425) 
CHEMBL3295410

>  <standard_relation>  (425) 
=

>  <assay_description>  (425) 
Antagonist activity at human recombinant at D2S receptor assessed as inhibition of dopamine-induced cAMP accumulation

>  <published_relation>  (425) 
=

>  <standard_value>  (425) 
5

>  <qudt_units>  (425) 
http://www.openphacts.org/units/Nanomolar

>  <target_tax_id>  (425) 
9606

>  <bao_label>  (425) 
assay format

>  <published_units>  (425) 
nM

>  <pchembl_value>  (425) 
8.3

>  <published_type>  (425) 
IC50

>  <activity_comment>  (425) 
None

$$$$

     RDKit          

 24 25  0  0  0  0  0  0  0  0999 V2000
    0.0000    0.0000    0.0000 C   0  0  0  0  0  0  0  0  0  0  0  0
    0.0000    0.0000    0.0000 O   0  0  0  0  0  0  0  0  0  0  0  0
    0.0000    0.0000    0.0000 C   0  0  0  0  0  0  0  0  0  0  0  0
    0.0000    0.0000    0.0000 C   0  0  0  0  0  0  0  0  0  0  0  0
    0.0000    0.0000    0.0000 C   0  0  0  0  0  0  0  0  0  0  0  0
    0.0000    0.0000    0.0000 C   0  0  0  0  0  0  0  0  0  0  0  0
    0.0000    0.0000    0.0000 C   0  0  0  0  0  0  0  0  0  0  0  0
    0.0000    0.0000    0.0000 C   0  0  0  0  0  0  0  0  0  0  0  0
    0.0000    0.0000    0.0000 N   0  0  0  0  0  0  0  0  0  0  0  0
    0.0000    0.0000    0.0000 C   0  0  0  0  0  0  0  0  0  0  0  0
    0.0000    0.0000    0.0000 C   0  0  0  0  0  0  0  0  0  0  0  0
    0.0000    0.0000    0.0000 N   0  0  0  0  0  0  0  0  0  0  0  0
    0.0000    0.0000    0.0000 C   0  0  0  0  0  0  0  0  0  0  0  0
    0.0000    0.0000    0.0000 C   0  0  0  0  0  0  0  0  0  0  0  0
    0.0000    0.0000    0.0000 N   0  0  0  0  0  0  0  0  0  0  0  0
    0.0000    0.0000    0.0000 C   0  0  0  0  0  0  0  0  0  0  0  0
    0.0000    0.0000    0.0000 O   0  0  0  0  0  0  0  0  0  0  0  0
    0.0000    0.0000    0.0000 O   0  0  0  0  0  0  0  0  0  0  0  0
    0.0000    0.0000    0.0000 C   0  0  0  0  0  0  0  0  0  0  0  0
    0.0000    0.0000    0.0000 C   0  0  0  0  0  0  0  0  0  0  0  0
    0.0000    0.0000    0.0000 C   0  0  0  0  0  0  0  0  0  0  0  0
    0.0000    0.0000    0.0000 C   0  0  0  0  0  0  0  0  0  0  0  0
    0.0000    0.0000    0.0000 C   0  0  0  0  0  0  0  0  0  0  0  0
    0.0000    0.0000    0.0000 C   0  0  0  0  0  0  0  0  0  0  0  0
  1  2  1  0
  2  3  1  0
  3  4  2  0
  4  5  1  0
  5  6  2  0
  6  7  1  0
  7  8  2  0
  8  9  1  0
  9 10  1  0
 10 11  1  0
 11 12  1  0
 12 13  1  0
 13 14  1  0
 14 15  1  0
 15 16  1  0
 16 17  2  0
 16 18  1  0
 18 19  1  0
 19 20  1  0
 19 21  1  0
 19 22  1  0
 12 23  1  0
 23 24  1  0
  8  3  1  0
 24  9  1  0
M  END
>  <pIC50>  (426) 
7.03

>  <ChEMBL_ID>  (426) 
CHEMBL3299093

>  <document_journal>  (426) 
J. Med. Chem.

>  <bao_endpoint>  (426) 
BAO_0000190

>  <potential_duplicate>  (426) 
False

>  <uo_units>  (426) 
UO_0000065

>  <canonical_smiles>  (426) 
COc1ccccc1N2CCN(CCNC(=O)OC(C)(C)C)CC2

>  <parent_molecule_chembl_id>  (426) 
CHEMBL3299093

>  <assay_type>  (426) 
B

>  <src_id>  (426) 
1

>  <ligand_efficiency>  (426) 
{u'le': u'0.4', u'bei': u'20.96', u'sei': u'13.01', u'lle': u'4.33'}

>  <standard_flag>  (426) 
True

>  <molecule_chembl_id>  (426) 
CHEMBL3299093

>  <target_organism>  (426) 
Homo sapiens

>  <standard_units>  (426) 
nM

>  <record_id>  (426) 
2121439

>  <document_chembl_id>  (426) 
CHEMBL3297649

>  <bao_format>  (426) 
BAO_0000219

>  <data_validity_description>  (426) 
None

>  <activity_id>  (426) 
14755263

>  <standard_type>  (426) 
IC50

>  <target_chembl_id>  (426) 
CHEMBL217

>  <data_validity_comment>  (426) 
None

>  <published_value>  (426) 
93.3

>  <document_year>  (426) 
2014

>  <target_pref_name>  (426) 
Dopamine D2 receptor

>  <assay_chembl_id>  (426) 
CHEMBL3300164

>  <standard_relation>  (426) 
=

>  <assay_description>  (426) 
Antagonist activity at human D2L receptor expressed in FlpIn CHO cells assessed as inhibition of dopamine-induced ERK1/2 phosphorylation treated for 30 mins prior to dopamine stimulation for 5 mins by AlphaScreen assay

>  <published_relation>  (426) 
=

>  <standard_value>  (426) 
93.3

>  <qudt_units>  (426) 
http://www.openphacts.org/units/Nanomolar

>  <target_tax_id>  (426) 
9606

>  <bao_label>  (426) 
cell-based format

>  <published_units>  (426) 
nM

>  <pchembl_value>  (426) 
7.03

>  <published_type>  (426) 
IC50

>  <activity_comment>  (426) 
None

$$$$

     RDKit          

 28 29  0  0  0  0  0  0  0  0999 V2000
    0.0000    0.0000    0.0000 C   0  0  0  0  0  0  0  0  0  0  0  0
    0.0000    0.0000    0.0000 O   0  0  0  0  0  0  0  0  0  0  0  0
    0.0000    0.0000    0.0000 C   0  0  0  0  0  0  0  0  0  0  0  0
    0.0000    0.0000    0.0000 C   0  0  0  0  0  0  0  0  0  0  0  0
    0.0000    0.0000    0.0000 C   0  0  0  0  0  0  0  0  0  0  0  0
    0.0000    0.0000    0.0000 C   0  0  0  0  0  0  0  0  0  0  0  0
    0.0000    0.0000    0.0000 C   0  0  0  0  0  0  0  0  0  0  0  0
    0.0000    0.0000    0.0000 C   0  0  0  0  0  0  0  0  0  0  0  0
    0.0000    0.0000    0.0000 N   0  0  0  0  0  0  0  0  0  0  0  0
    0.0000    0.0000    0.0000 C   0  0  0  0  0  0  0  0  0  0  0  0
    0.0000    0.0000    0.0000 C   0  0  0  0  0  0  0  0  0  0  0  0
    0.0000    0.0000    0.0000 N   0  0  0  0  0  0  0  0  0  0  0  0
    0.0000    0.0000    0.0000 C   0  0  0  0  0  0  0  0  0  0  0  0
    0.0000    0.0000    0.0000 C   0  0  0  0  0  0  0  0  0  0  0  0
    0.0000    0.0000    0.0000 C   0  0  0  0  0  0  0  0  0  0  0  0
    0.0000    0.0000    0.0000 C   0  0  0  0  0  0  0  0  0  0  0  0
    0.0000    0.0000    0.0000 C   0  0  0  0  0  0  0  0  0  0  0  0
    0.0000    0.0000    0.0000 C   0  0  0  0  0  0  0  0  0  0  0  0
    0.0000    0.0000    0.0000 N   0  0  0  0  0  0  0  0  0  0  0  0
    0.0000    0.0000    0.0000 C   0  0  0  0  0  0  0  0  0  0  0  0
    0.0000    0.0000    0.0000 O   0  0  0  0  0  0  0  0  0  0  0  0
    0.0000    0.0000    0.0000 O   0  0  0  0  0  0  0  0  0  0  0  0
    0.0000    0.0000    0.0000 C   0  0  0  0  0  0  0  0  0  0  0  0
    0.0000    0.0000    0.0000 C   0  0  0  0  0  0  0  0  0  0  0  0
    0.0000    0.0000    0.0000 C   0  0  0  0  0  0  0  0  0  0  0  0
    0.0000    0.0000    0.0000 C   0  0  0  0  0  0  0  0  0  0  0  0
    0.0000    0.0000    0.0000 C   0  0  0  0  0  0  0  0  0  0  0  0
    0.0000    0.0000    0.0000 C   0  0  0  0  0  0  0  0  0  0  0  0
  1  2  1  0
  2  3  1  0
  3  4  2  0
  4  5  1  0
  5  6  2  0
  6  7  1  0
  7  8  2  0
  8  9  1  0
  9 10  1  0
 10 11  1  0
 11 12  1  0
 12 13  1  0
 13 14  1  0
 14 15  1  0
 15 16  1  0
 16 17  1  0
 17 18  1  0
 18 19  1  0
 19 20  1  0
 20 21  2  0
 20 22  1  0
 22 23  1  0
 23 24  1  0
 23 25  1  0
 23 26  1  0
 12 27  1  0
 27 28  1  0
  8  3  1  0
 28  9  1  0
M  END
>  <pIC50>  (427) 
8.4

>  <ChEMBL_ID>  (427) 
CHEMBL3299097

>  <document_journal>  (427) 
J. Med. Chem.

>  <bao_endpoint>  (427) 
BAO_0000190

>  <potential_duplicate>  (427) 
False

>  <uo_units>  (427) 
UO_0000065

>  <canonical_smiles>  (427) 
COc1ccccc1N2CCN(CCCCCCNC(=O)OC(C)(C)C)CC2

>  <parent_molecule_chembl_id>  (427) 
CHEMBL3299097

>  <assay_type>  (427) 
B

>  <src_id>  (427) 
1

>  <ligand_efficiency>  (427) 
{u'le': u'0.41', u'bei': u'21.45', u'sei': u'15.54', u'lle': u'4.15'}

>  <standard_flag>  (427) 
True

>  <molecule_chembl_id>  (427) 
CHEMBL3299097

>  <target_organism>  (427) 
Homo sapiens

>  <standard_units>  (427) 
nM

>  <record_id>  (427) 
2121443

>  <document_chembl_id>  (427) 
CHEMBL3297649

>  <bao_format>  (427) 
BAO_0000219

>  <data_validity_description>  (427) 
None

>  <activity_id>  (427) 
14755264

>  <standard_type>  (427) 
IC50

>  <target_chembl_id>  (427) 
CHEMBL217

>  <data_validity_comment>  (427) 
None

>  <published_value>  (427) 
3.98

>  <document_year>  (427) 
2014

>  <target_pref_name>  (427) 
Dopamine D2 receptor

>  <assay_chembl_id>  (427) 
CHEMBL3300164

>  <standard_relation>  (427) 
=

>  <assay_description>  (427) 
Antagonist activity at human D2L receptor expressed in FlpIn CHO cells assessed as inhibition of dopamine-induced ERK1/2 phosphorylation treated for 30 mins prior to dopamine stimulation for 5 mins by AlphaScreen assay

>  <published_relation>  (427) 
=

>  <standard_value>  (427) 
3.98

>  <qudt_units>  (427) 
http://www.openphacts.org/units/Nanomolar

>  <target_tax_id>  (427) 
9606

>  <bao_label>  (427) 
cell-based format

>  <published_units>  (427) 
nM

>  <pchembl_value>  (427) 
8.4

>  <published_type>  (427) 
IC50

>  <activity_comment>  (427) 
None

$$$$

     RDKit          

 30 33  0  0  0  0  0  0  0  0999 V2000
    0.0000    0.0000    0.0000 C   0  0  0  0  0  0  0  0  0  0  0  0
    0.0000    0.0000    0.0000 O   0  0  0  0  0  0  0  0  0  0  0  0
    0.0000    0.0000    0.0000 C   0  0  0  0  0  0  0  0  0  0  0  0
    0.0000    0.0000    0.0000 C   0  0  0  0  0  0  0  0  0  0  0  0
    0.0000    0.0000    0.0000 C   0  0  0  0  0  0  0  0  0  0  0  0
    0.0000    0.0000    0.0000 C   0  0  0  0  0  0  0  0  0  0  0  0
    0.0000    0.0000    0.0000 C   0  0  0  0  0  0  0  0  0  0  0  0
    0.0000    0.0000    0.0000 C   0  0  0  0  0  0  0  0  0  0  0  0
    0.0000    0.0000    0.0000 N   0  0  0  0  0  0  0  0  0  0  0  0
    0.0000    0.0000    0.0000 C   0  0  0  0  0  0  0  0  0  0  0  0
    0.0000    0.0000    0.0000 C   0  0  0  0  0  0  0  0  0  0  0  0
    0.0000    0.0000    0.0000 N   0  0  0  0  0  0  0  0  0  0  0  0
    0.0000    0.0000    0.0000 C   0  0  0  0  0  0  0  0  0  0  0  0
    0.0000    0.0000    0.0000 C   0  0  0  0  0  0  0  0  0  0  0  0
    0.0000    0.0000    0.0000 C   0  0  0  0  0  0  0  0  0  0  0  0
    0.0000    0.0000    0.0000 C   0  0  0  0  0  0  0  0  0  0  0  0
    0.0000    0.0000    0.0000 N   0  0  0  0  0  0  0  0  0  0  0  0
    0.0000    0.0000    0.0000 C   0  0  0  0  0  0  0  0  0  0  0  0
    0.0000    0.0000    0.0000 O   0  0  0  0  0  0  0  0  0  0  0  0
    0.0000    0.0000    0.0000 C   0  0  0  0  0  0  0  0  0  0  0  0
    0.0000    0.0000    0.0000 C   0  0  0  0  0  0  0  0  0  0  0  0
    0.0000    0.0000    0.0000 N   0  0  0  0  0  0  0  0  0  0  0  0
    0.0000    0.0000    0.0000 C   0  0  0  0  0  0  0  0  0  0  0  0
    0.0000    0.0000    0.0000 C   0  0  0  0  0  0  0  0  0  0  0  0
    0.0000    0.0000    0.0000 C   0  0  0  0  0  0  0  0  0  0  0  0
    0.0000    0.0000    0.0000 C   0  0  0  0  0  0  0  0  0  0  0  0
    0.0000    0.0000    0.0000 C   0  0  0  0  0  0  0  0  0  0  0  0
    0.0000    0.0000    0.0000 N   0  0  0  0  0  0  0  0  0  0  0  0
    0.0000    0.0000    0.0000 C   0  0  0  0  0  0  0  0  0  0  0  0
    0.0000    0.0000    0.0000 C   0  0  0  0  0  0  0  0  0  0  0  0
  1  2  1  0
  2  3  1  0
  3  4  2  0
  4  5  1  0
  5  6  2  0
  6  7  1  0
  7  8  2  0
  8  9  1  0
  9 10  1  0
 10 11  1  0
 11 12  1  0
 12 13  1  0
 13 14  1  0
 14 15  1  0
 15 16  1  0
 16 17  1  0
 17 18  1  0
 18 19  2  0
 18 20  1  0
 20 21  2  0
 21 22  1  0
 22 23  1  0
 23 24  2  0
 24 25  1  0
 25 26  2  0
 26 27  1  0
 27 28  2  0
 12 29  1  0
 29 30  1  0
  8  3  1  0
 30  9  1  0
 28 20  1  0
 27 22  1  0
M  END
>  <pIC50>  (428) 
7.885

>  <ChEMBL_ID>  (428) 
CHEMBL3322993

>  <document_journal>  (428) 
J. Med. Chem.

>  <bao_endpoint>  (428) 
BAO_0000190

>  <potential_duplicate>  (428) 
False

>  <uo_units>  (428) 
UO_0000065

>  <canonical_smiles>  (428) 
COc1ccccc1N2CCN(CCCCNC(=O)c3cn4ccccc4n3)CC2

>  <parent_molecule_chembl_id>  (428) 
CHEMBL3322993

>  <assay_type>  (428) 
B

>  <src_id>  (428) 
1

>  <ligand_efficiency>  (428) 
{u'le': u'0.35', u'bei': u'18.61', u'sei': u'12.21', u'lle': u'4.99'}

>  <standard_flag>  (428) 
True

>  <molecule_chembl_id>  (428) 
CHEMBL3322993

>  <target_organism>  (428) 
Homo sapiens

>  <standard_units>  (428) 
nM

>  <record_id>  (428) 
2263896

>  <document_chembl_id>  (428) 
CHEMBL3351252

>  <bao_format>  (428) 
BAO_0000219

>  <data_validity_description>  (428) 
None

>  <activity_id>  (428) 
14996152

>  <standard_type>  (428) 
IC50

>  <target_chembl_id>  (428) 
CHEMBL217

>  <data_validity_comment>  (428) 
None

>  <published_value>  (428) 
26

>  <document_year>  (428) 
2014

>  <target_pref_name>  (428) 
Dopamine D2 receptor

>  <assay_chembl_id>  (428) 
CHEMBL3379904

>  <standard_relation>  (428) 
=

>  <assay_description>  (428) 
Antagonist activity against human D2R expressed in CHO cells assessed as inhibition of quinpirole-induced mitogenesis after 24 hrs by [3H]thymidine uptake assay

>  <published_relation>  (428) 
=

>  <standard_value>  (428) 
26

>  <qudt_units>  (428) 
http://www.openphacts.org/units/Nanomolar

>  <target_tax_id>  (428) 
9606

>  <bao_label>  (428) 
cell-based format

>  <published_units>  (428) 
nM

>  <pchembl_value>  (428) 
7.59

>  <published_type>  (428) 
IC50

>  <activity_comment>  (428) 
None

$$$$

     RDKit          

 30 33  0  0  0  0  0  0  0  0999 V2000
    0.0000    0.0000    0.0000 Cl  0  0  0  0  0  0  0  0  0  0  0  0
    0.0000    0.0000    0.0000 C   0  0  0  0  0  0  0  0  0  0  0  0
    0.0000    0.0000    0.0000 C   0  0  0  0  0  0  0  0  0  0  0  0
    0.0000    0.0000    0.0000 C   0  0  0  0  0  0  0  0  0  0  0  0
    0.0000    0.0000    0.0000 C   0  0  0  0  0  0  0  0  0  0  0  0
    0.0000    0.0000    0.0000 C   0  0  0  0  0  0  0  0  0  0  0  0
    0.0000    0.0000    0.0000 N   0  0  0  0  0  0  0  0  0  0  0  0
    0.0000    0.0000    0.0000 C   0  0  0  0  0  0  0  0  0  0  0  0
    0.0000    0.0000    0.0000 C   0  0  0  0  0  0  0  0  0  0  0  0
    0.0000    0.0000    0.0000 N   0  0  0  0  0  0  0  0  0  0  0  0
    0.0000    0.0000    0.0000 C   0  0  0  0  0  0  0  0  0  0  0  0
    0.0000    0.0000    0.0000 C   0  0  0  0  0  0  0  0  0  0  0  0
    0.0000    0.0000    0.0000 C   0  0  0  0  0  0  0  0  0  0  0  0
    0.0000    0.0000    0.0000 C   0  0  0  0  0  0  0  0  0  0  0  0
    0.0000    0.0000    0.0000 N   0  0  0  0  0  0  0  0  0  0  0  0
    0.0000    0.0000    0.0000 C   0  0  0  0  0  0  0  0  0  0  0  0
    0.0000    0.0000    0.0000 O   0  0  0  0  0  0  0  0  0  0  0  0
    0.0000    0.0000    0.0000 C   0  0  0  0  0  0  0  0  0  0  0  0
    0.0000    0.0000    0.0000 C   0  0  0  0  0  0  0  0  0  0  0  0
    0.0000    0.0000    0.0000 N   0  0  0  0  0  0  0  0  0  0  0  0
    0.0000    0.0000    0.0000 C   0  0  0  0  0  0  0  0  0  0  0  0
    0.0000    0.0000    0.0000 C   0  0  0  0  0  0  0  0  0  0  0  0
    0.0000    0.0000    0.0000 C   0  0  0  0  0  0  0  0  0  0  0  0
    0.0000    0.0000    0.0000 C   0  0  0  0  0  0  0  0  0  0  0  0
    0.0000    0.0000    0.0000 C   0  0  0  0  0  0  0  0  0  0  0  0
    0.0000    0.0000    0.0000 N   0  0  0  0  0  0  0  0  0  0  0  0
    0.0000    0.0000    0.0000 C   0  0  0  0  0  0  0  0  0  0  0  0
    0.0000    0.0000    0.0000 C   0  0  0  0  0  0  0  0  0  0  0  0
    0.0000    0.0000    0.0000 C   0  0  0  0  0  0  0  0  0  0  0  0
    0.0000    0.0000    0.0000 Cl  0  0  0  0  0  0  0  0  0  0  0  0
  1  2  1  0
  2  3  2  0
  3  4  1  0
  4  5  2  0
  5  6  1  0
  6  7  1  0
  7  8  1  0
  8  9  1  0
  9 10  1  0
 10 11  1  0
 11 12  1  0
 12 13  1  0
 13 14  1  0
 14 15  1  0
 15 16  1  0
 16 17  2  0
 16 18  1  0
 18 19  2  0
 19 20  1  0
 20 21  1  0
 21 22  2  0
 22 23  1  0
 23 24  2  0
 24 25  1  0
 25 26  2  0
 10 27  1  0
 27 28  1  0
  6 29  2  0
 29 30  1  0
 29  2  1  0
 28  7  1  0
 26 18  1  0
 25 20  1  0
M  END
>  <pIC50>  (429) 
7.75333333333

>  <ChEMBL_ID>  (429) 
CHEMBL3322994

>  <document_journal>  (429) 
J. Med. Chem.

>  <bao_endpoint>  (429) 
BAO_0000190

>  <potential_duplicate>  (429) 
False

>  <uo_units>  (429) 
UO_0000065

>  <canonical_smiles>  (429) 
Clc1cccc(N2CCN(CCCCNC(=O)c3cn4ccccc4n3)CC2)c1Cl

>  <parent_molecule_chembl_id>  (429) 
CHEMBL3322994

>  <assay_type>  (429) 
B

>  <src_id>  (429) 
1

>  <ligand_efficiency>  (429) 
{u'le': u'0.33', u'bei': u'16.26', u'sei': u'13.73', u'lle': u'3.31'}

>  <standard_flag>  (429) 
True

>  <molecule_chembl_id>  (429) 
CHEMBL3322994

>  <target_organism>  (429) 
Homo sapiens

>  <standard_units>  (429) 
nM

>  <record_id>  (429) 
2263897

>  <document_chembl_id>  (429) 
CHEMBL3351252

>  <bao_format>  (429) 
BAO_0000219

>  <data_validity_description>  (429) 
None

>  <activity_id>  (429) 
14996153

>  <standard_type>  (429) 
IC50

>  <target_chembl_id>  (429) 
CHEMBL217

>  <data_validity_comment>  (429) 
None

>  <published_value>  (429) 
55

>  <document_year>  (429) 
2014

>  <target_pref_name>  (429) 
Dopamine D2 receptor

>  <assay_chembl_id>  (429) 
CHEMBL3379904

>  <standard_relation>  (429) 
=

>  <assay_description>  (429) 
Antagonist activity against human D2R expressed in CHO cells assessed as inhibition of quinpirole-induced mitogenesis after 24 hrs by [3H]thymidine uptake assay

>  <published_relation>  (429) 
=

>  <standard_value>  (429) 
55

>  <qudt_units>  (429) 
http://www.openphacts.org/units/Nanomolar

>  <target_tax_id>  (429) 
9606

>  <bao_label>  (429) 
cell-based format

>  <published_units>  (429) 
nM

>  <pchembl_value>  (429) 
7.26

>  <published_type>  (429) 
IC50

>  <activity_comment>  (429) 
None

$$$$

     RDKit          

 36 39  0  0  0  0  0  0  0  0999 V2000
    0.0000    0.0000    0.0000 C   0  0  0  0  0  0  0  0  0  0  0  0
    0.0000    0.0000    0.0000 C   0  0  0  0  0  0  0  0  0  0  0  0
    0.0000    0.0000    0.0000 C   0  0  0  0  0  0  0  0  0  0  0  0
    0.0000    0.0000    0.0000 C   0  0  0  0  0  0  0  0  0  0  0  0
    0.0000    0.0000    0.0000 C   0  0  0  0  0  0  0  0  0  0  0  0
    0.0000    0.0000    0.0000 N   0  0  0  0  0  0  0  0  0  0  0  0
    0.0000    0.0000    0.0000 C   0  0  0  0  0  0  0  0  0  0  0  0
    0.0000    0.0000    0.0000 C   0  0  0  0  0  0  0  0  0  0  0  0
    0.0000    0.0000    0.0000 C   0  0  0  0  0  0  0  0  0  0  0  0
    0.0000    0.0000    0.0000 N   0  0  0  0  0  0  0  0  0  0  0  0
    0.0000    0.0000    0.0000 C   0  0  0  0  0  0  0  0  0  0  0  0
    0.0000    0.0000    0.0000 F   0  0  0  0  0  0  0  0  0  0  0  0
    0.0000    0.0000    0.0000 F   0  0  0  0  0  0  0  0  0  0  0  0
    0.0000    0.0000    0.0000 F   0  0  0  0  0  0  0  0  0  0  0  0
    0.0000    0.0000    0.0000 N   0  0  0  0  0  0  0  0  0  0  0  0
    0.0000    0.0000    0.0000 C   0  0  0  0  0  0  0  0  0  0  0  0
    0.0000    0.0000    0.0000 C   0  0  0  0  0  0  0  0  0  0  0  0
    0.0000    0.0000    0.0000 N   0  0  0  0  0  0  0  0  0  0  0  0
    0.0000    0.0000    0.0000 C   0  0  0  0  0  0  0  0  0  0  0  0
    0.0000    0.0000    0.0000 C   0  0  0  0  0  0  0  0  0  0  0  0
    0.0000    0.0000    0.0000 C   0  0  0  0  0  0  0  0  0  0  0  0
    0.0000    0.0000    0.0000 C   0  0  0  0  0  0  0  0  0  0  0  0
    0.0000    0.0000    0.0000 N   0  0  0  0  0  0  0  0  0  0  0  0
    0.0000    0.0000    0.0000 C   0  0  0  0  0  0  0  0  0  0  0  0
    0.0000    0.0000    0.0000 O   0  0  0  0  0  0  0  0  0  0  0  0
    0.0000    0.0000    0.0000 C   0  0  0  0  0  0  0  0  0  0  0  0
    0.0000    0.0000    0.0000 C   0  0  0  0  0  0  0  0  0  0  0  0
    0.0000    0.0000    0.0000 N   0  0  0  0  0  0  0  0  0  0  0  0
    0.0000    0.0000    0.0000 C   0  0  0  0  0  0  0  0  0  0  0  0
    0.0000    0.0000    0.0000 C   0  0  0  0  0  0  0  0  0  0  0  0
    0.0000    0.0000    0.0000 C   0  0  0  0  0  0  0  0  0  0  0  0
    0.0000    0.0000    0.0000 C   0  0  0  0  0  0  0  0  0  0  0  0
    0.0000    0.0000    0.0000 C   0  0  0  0  0  0  0  0  0  0  0  0
    0.0000    0.0000    0.0000 N   0  0  0  0  0  0  0  0  0  0  0  0
    0.0000    0.0000    0.0000 C   0  0  0  0  0  0  0  0  0  0  0  0
    0.0000    0.0000    0.0000 C   0  0  0  0  0  0  0  0  0  0  0  0
  1  2  1  0
  2  3  1  0
  2  4  1  0
  2  5  1  0
  5  6  2  0
  6  7  1  0
  7  8  2  0
  8  9  1  0
  9 10  2  0
  9 11  1  0
 11 12  1  0
 11 13  1  0
 11 14  1  0
  7 15  1  0
 15 16  1  0
 16 17  1  0
 17 18  1  0
 18 19  1  0
 19 20  1  0
 20 21  1  0
 21 22  1  0
 22 23  1  0
 23 24  1  0
 24 25  2  0
 24 26  1  0
 26 27  2  0
 27 28  1  0
 28 29  1  0
 29 30  2  0
 30 31  1  0
 31 32  2  0
 32 33  1  0
 33 34  2  0
 18 35  1  0
 35 36  1  0
 10  5  1  0
 36 15  1  0
 34 26  1  0
 33 28  1  0
M  END
>  <pIC50>  (430) 
6.39333333333

>  <ChEMBL_ID>  (430) 
CHEMBL3323011

>  <document_journal>  (430) 
J. Med. Chem.

>  <bao_endpoint>  (430) 
BAO_0000190

>  <potential_duplicate>  (430) 
False

>  <uo_units>  (430) 
UO_0000065

>  <canonical_smiles>  (430) 
CC(C)(C)c1nc(cc(n1)C(F)(F)F)N2CCN(CCCCNC(=O)c3cn4ccccc4n3)CC2

>  <parent_molecule_chembl_id>  (430) 
CHEMBL3323011

>  <assay_type>  (430) 
B

>  <src_id>  (430) 
1

>  <ligand_efficiency>  (430) 
{u'le': u'0.21', u'bei': u'11.2', u'sei': u'7.17', u'lle': u'1.39'}

>  <standard_flag>  (430) 
True

>  <molecule_chembl_id>  (430) 
CHEMBL3323011

>  <target_organism>  (430) 
Homo sapiens

>  <standard_units>  (430) 
nM

>  <record_id>  (430) 
2265989

>  <document_chembl_id>  (430) 
CHEMBL3351252

>  <bao_format>  (430) 
BAO_0000219

>  <data_validity_description>  (430) 
None

>  <activity_id>  (430) 
14996156

>  <standard_type>  (430) 
IC50

>  <target_chembl_id>  (430) 
CHEMBL217

>  <data_validity_comment>  (430) 
None

>  <published_value>  (430) 
2300

>  <document_year>  (430) 
2014

>  <target_pref_name>  (430) 
Dopamine D2 receptor

>  <assay_chembl_id>  (430) 
CHEMBL3379904

>  <standard_relation>  (430) 
=

>  <assay_description>  (430) 
Antagonist activity against human D2R expressed in CHO cells assessed as inhibition of quinpirole-induced mitogenesis after 24 hrs by [3H]thymidine uptake assay

>  <published_relation>  (430) 
=

>  <standard_value>  (430) 
2300

>  <qudt_units>  (430) 
http://www.openphacts.org/units/Nanomolar

>  <target_tax_id>  (430) 
9606

>  <bao_label>  (430) 
cell-based format

>  <published_units>  (430) 
nM

>  <pchembl_value>  (430) 
5.64

>  <published_type>  (430) 
IC50

>  <activity_comment>  (430) 
None

$$$$

     RDKit          

 36 39  0  0  0  0  0  0  0  0999 V2000
    0.0000    0.0000    0.0000 C   0  0  0  0  0  0  0  0  0  0  0  0
    0.0000    0.0000    0.0000 C   0  0  0  0  0  0  0  0  0  0  0  0
    0.0000    0.0000    0.0000 C   0  0  0  0  0  0  0  0  0  0  0  0
    0.0000    0.0000    0.0000 C   0  0  0  0  0  0  0  0  0  0  0  0
    0.0000    0.0000    0.0000 C   0  0  0  0  0  0  0  0  0  0  0  0
    0.0000    0.0000    0.0000 N   0  0  0  0  0  0  0  0  0  0  0  0
    0.0000    0.0000    0.0000 C   0  0  0  0  0  0  0  0  0  0  0  0
    0.0000    0.0000    0.0000 C   0  0  0  0  0  0  0  0  0  0  0  0
    0.0000    0.0000    0.0000 C   0  0  0  0  0  0  0  0  0  0  0  0
    0.0000    0.0000    0.0000 N   0  0  0  0  0  0  0  0  0  0  0  0
    0.0000    0.0000    0.0000 C   0  0  0  0  0  0  0  0  0  0  0  0
    0.0000    0.0000    0.0000 F   0  0  0  0  0  0  0  0  0  0  0  0
    0.0000    0.0000    0.0000 F   0  0  0  0  0  0  0  0  0  0  0  0
    0.0000    0.0000    0.0000 F   0  0  0  0  0  0  0  0  0  0  0  0
    0.0000    0.0000    0.0000 N   0  0  0  0  0  0  0  0  0  0  0  0
    0.0000    0.0000    0.0000 C   0  0  0  0  0  0  0  0  0  0  0  0
    0.0000    0.0000    0.0000 C   0  0  0  0  0  0  0  0  0  0  0  0
    0.0000    0.0000    0.0000 N   0  0  0  0  0  0  0  0  0  0  0  0
    0.0000    0.0000    0.0000 C   0  0  0  0  0  0  0  0  0  0  0  0
    0.0000    0.0000    0.0000 C   0  0  0  0  0  0  0  0  0  0  0  0
    0.0000    0.0000    0.0000 C   0  0  0  0  0  0  0  0  0  0  0  0
    0.0000    0.0000    0.0000 C   0  0  0  0  0  0  0  0  0  0  0  0
    0.0000    0.0000    0.0000 N   0  0  0  0  0  0  0  0  0  0  0  0
    0.0000    0.0000    0.0000 C   0  0  0  0  0  0  0  0  0  0  0  0
    0.0000    0.0000    0.0000 O   0  0  0  0  0  0  0  0  0  0  0  0
    0.0000    0.0000    0.0000 C   0  0  0  0  0  0  0  0  0  0  0  0
    0.0000    0.0000    0.0000 N   0  0  0  0  0  0  0  0  0  0  0  0
    0.0000    0.0000    0.0000 C   0  0  0  0  0  0  0  0  0  0  0  0
    0.0000    0.0000    0.0000 C   0  0  0  0  0  0  0  0  0  0  0  0
    0.0000    0.0000    0.0000 C   0  0  0  0  0  0  0  0  0  0  0  0
    0.0000    0.0000    0.0000 C   0  0  0  0  0  0  0  0  0  0  0  0
    0.0000    0.0000    0.0000 C   0  0  0  0  0  0  0  0  0  0  0  0
    0.0000    0.0000    0.0000 C   0  0  0  0  0  0  0  0  0  0  0  0
    0.0000    0.0000    0.0000 N   0  0  0  0  0  0  0  0  0  0  0  0
    0.0000    0.0000    0.0000 C   0  0  0  0  0  0  0  0  0  0  0  0
    0.0000    0.0000    0.0000 C   0  0  0  0  0  0  0  0  0  0  0  0
  1  2  1  0
  2  3  1  0
  2  4  1  0
  2  5  1  0
  5  6  2  0
  6  7  1  0
  7  8  2  0
  8  9  1  0
  9 10  2  0
  9 11  1  0
 11 12  1  0
 11 13  1  0
 11 14  1  0
  7 15  1  0
 15 16  1  0
 16 17  1  0
 17 18  1  0
 18 19  1  0
 19 20  1  0
 20 21  1  0
 21 22  1  0
 22 23  1  0
 23 24  1  0
 24 25  2  0
 24 26  1  0
 26 27  2  0
 27 28  1  0
 28 29  2  0
 29 30  1  0
 30 31  2  0
 31 32  1  0
 32 33  2  0
 33 34  1  0
 18 35  1  0
 35 36  1  0
 10  5  1  0
 36 15  1  0
 34 26  1  0
 33 28  1  0
M  END
>  <pIC50>  (431) 
6.415

>  <ChEMBL_ID>  (431) 
CHEMBL3323013

>  <document_journal>  (431) 
J. Med. Chem.

>  <bao_endpoint>  (431) 
BAO_0000190

>  <potential_duplicate>  (431) 
False

>  <uo_units>  (431) 
UO_0000065

>  <canonical_smiles>  (431) 
CC(C)(C)c1nc(cc(n1)C(F)(F)F)N2CCN(CCCCNC(=O)c3nc4ccccc4[nH]3)CC2

>  <parent_molecule_chembl_id>  (431) 
CHEMBL3323013

>  <assay_type>  (431) 
B

>  <src_id>  (431) 
1

>  <ligand_efficiency>  (431) 
{u'le': u'0.24', u'bei': u'12.53', u'sei': u'7.01', u'lle': u'1.31'}

>  <standard_flag>  (431) 
True

>  <molecule_chembl_id>  (431) 
CHEMBL3323013

>  <target_organism>  (431) 
Homo sapiens

>  <standard_units>  (431) 
nM

>  <record_id>  (431) 
2265991

>  <document_chembl_id>  (431) 
CHEMBL3351252

>  <bao_format>  (431) 
BAO_0000219

>  <data_validity_description>  (431) 
None

>  <activity_id>  (431) 
14996157

>  <standard_type>  (431) 
IC50

>  <target_chembl_id>  (431) 
CHEMBL217

>  <data_validity_comment>  (431) 
None

>  <published_value>  (431) 
490

>  <document_year>  (431) 
2014

>  <target_pref_name>  (431) 
Dopamine D2 receptor

>  <assay_chembl_id>  (431) 
CHEMBL3379904

>  <standard_relation>  (431) 
=

>  <assay_description>  (431) 
Antagonist activity against human D2R expressed in CHO cells assessed as inhibition of quinpirole-induced mitogenesis after 24 hrs by [3H]thymidine uptake assay

>  <published_relation>  (431) 
=

>  <standard_value>  (431) 
490

>  <qudt_units>  (431) 
http://www.openphacts.org/units/Nanomolar

>  <target_tax_id>  (431) 
9606

>  <bao_label>  (431) 
cell-based format

>  <published_units>  (431) 
nM

>  <pchembl_value>  (431) 
6.31

>  <published_type>  (431) 
IC50

>  <activity_comment>  (431) 
None

$$$$

     RDKit          

 36 39  0  0  0  0  0  0  0  0999 V2000
    0.0000    0.0000    0.0000 C   0  0  0  0  0  0  0  0  0  0  0  0
    0.0000    0.0000    0.0000 C   0  0  0  0  0  0  0  0  0  0  0  0
    0.0000    0.0000    0.0000 C   0  0  0  0  0  0  0  0  0  0  0  0
    0.0000    0.0000    0.0000 C   0  0  0  0  0  0  0  0  0  0  0  0
    0.0000    0.0000    0.0000 C   0  0  0  0  0  0  0  0  0  0  0  0
    0.0000    0.0000    0.0000 N   0  0  0  0  0  0  0  0  0  0  0  0
    0.0000    0.0000    0.0000 C   0  0  0  0  0  0  0  0  0  0  0  0
    0.0000    0.0000    0.0000 C   0  0  0  0  0  0  0  0  0  0  0  0
    0.0000    0.0000    0.0000 C   0  0  0  0  0  0  0  0  0  0  0  0
    0.0000    0.0000    0.0000 N   0  0  0  0  0  0  0  0  0  0  0  0
    0.0000    0.0000    0.0000 C   0  0  0  0  0  0  0  0  0  0  0  0
    0.0000    0.0000    0.0000 F   0  0  0  0  0  0  0  0  0  0  0  0
    0.0000    0.0000    0.0000 F   0  0  0  0  0  0  0  0  0  0  0  0
    0.0000    0.0000    0.0000 F   0  0  0  0  0  0  0  0  0  0  0  0
    0.0000    0.0000    0.0000 N   0  0  0  0  0  0  0  0  0  0  0  0
    0.0000    0.0000    0.0000 C   0  0  0  0  0  0  0  0  0  0  0  0
    0.0000    0.0000    0.0000 C   0  0  0  0  0  0  0  0  0  0  0  0
    0.0000    0.0000    0.0000 N   0  0  0  0  0  0  0  0  0  0  0  0
    0.0000    0.0000    0.0000 C   0  0  0  0  0  0  0  0  0  0  0  0
    0.0000    0.0000    0.0000 C   0  0  0  0  0  0  0  0  0  0  0  0
    0.0000    0.0000    0.0000 C   0  0  0  0  0  0  0  0  0  0  0  0
    0.0000    0.0000    0.0000 C   0  0  0  0  0  0  0  0  0  0  0  0
    0.0000    0.0000    0.0000 N   0  0  0  0  0  0  0  0  0  0  0  0
    0.0000    0.0000    0.0000 C   0  0  0  0  0  0  0  0  0  0  0  0
    0.0000    0.0000    0.0000 O   0  0  0  0  0  0  0  0  0  0  0  0
    0.0000    0.0000    0.0000 C   0  0  0  0  0  0  0  0  0  0  0  0
    0.0000    0.0000    0.0000 C   0  0  0  0  0  0  0  0  0  0  0  0
    0.0000    0.0000    0.0000 N   0  0  0  0  0  0  0  0  0  0  0  0
    0.0000    0.0000    0.0000 C   0  0  0  0  0  0  0  0  0  0  0  0
    0.0000    0.0000    0.0000 C   0  0  0  0  0  0  0  0  0  0  0  0
    0.0000    0.0000    0.0000 C   0  0  0  0  0  0  0  0  0  0  0  0
    0.0000    0.0000    0.0000 N   0  0  0  0  0  0  0  0  0  0  0  0
    0.0000    0.0000    0.0000 C   0  0  0  0  0  0  0  0  0  0  0  0
    0.0000    0.0000    0.0000 N   0  0  0  0  0  0  0  0  0  0  0  0
    0.0000    0.0000    0.0000 C   0  0  0  0  0  0  0  0  0  0  0  0
    0.0000    0.0000    0.0000 C   0  0  0  0  0  0  0  0  0  0  0  0
  1  2  1  0
  2  3  1  0
  2  4  1  0
  2  5  1  0
  5  6  2  0
  6  7  1  0
  7  8  2  0
  8  9  1  0
  9 10  2  0
  9 11  1  0
 11 12  1  0
 11 13  1  0
 11 14  1  0
  7 15  1  0
 15 16  1  0
 16 17  1  0
 17 18  1  0
 18 19  1  0
 19 20  1  0
 20 21  1  0
 21 22  1  0
 22 23  1  0
 23 24  1  0
 24 25  2  0
 24 26  1  0
 26 27  2  0
 27 28  1  0
 28 29  1  0
 29 30  2  0
 30 31  1  0
 31 32  2  0
 32 33  1  0
 33 34  2  0
 18 35  1  0
 35 36  1  0
 10  5  1  0
 36 15  1  0
 34 26  1  0
 33 28  1  0
M  END
>  <pIC50>  (432) 
7.06

>  <ChEMBL_ID>  (432) 
CHEMBL3323015

>  <document_journal>  (432) 
J. Med. Chem.

>  <bao_endpoint>  (432) 
BAO_0000190

>  <potential_duplicate>  (432) 
False

>  <uo_units>  (432) 
UO_0000065

>  <canonical_smiles>  (432) 
CC(C)(C)c1nc(cc(n1)C(F)(F)F)N2CCN(CCCCNC(=O)c3cn4cccnc4n3)CC2

>  <parent_molecule_chembl_id>  (432) 
CHEMBL3323015

>  <assay_type>  (432) 
B

>  <src_id>  (432) 
1

>  <ligand_efficiency>  (432) 
{u'le': u'0.25', u'bei': u'13.26', u'sei': u'7.31', u'lle': u'2.82'}

>  <standard_flag>  (432) 
True

>  <molecule_chembl_id>  (432) 
CHEMBL3323015

>  <target_organism>  (432) 
Homo sapiens

>  <standard_units>  (432) 
nM

>  <record_id>  (432) 
2265993

>  <document_chembl_id>  (432) 
CHEMBL3351252

>  <bao_format>  (432) 
BAO_0000219

>  <data_validity_description>  (432) 
None

>  <activity_id>  (432) 
14996158

>  <standard_type>  (432) 
IC50

>  <target_chembl_id>  (432) 
CHEMBL217

>  <data_validity_comment>  (432) 
None

>  <published_value>  (432) 
205

>  <document_year>  (432) 
2014

>  <target_pref_name>  (432) 
Dopamine D2 receptor

>  <assay_chembl_id>  (432) 
CHEMBL3379904

>  <standard_relation>  (432) 
=

>  <assay_description>  (432) 
Antagonist activity against human D2R expressed in CHO cells assessed as inhibition of quinpirole-induced mitogenesis after 24 hrs by [3H]thymidine uptake assay

>  <published_relation>  (432) 
=

>  <standard_value>  (432) 
205

>  <qudt_units>  (432) 
http://www.openphacts.org/units/Nanomolar

>  <target_tax_id>  (432) 
9606

>  <bao_label>  (432) 
cell-based format

>  <published_units>  (432) 
nM

>  <pchembl_value>  (432) 
6.69

>  <published_type>  (432) 
IC50

>  <activity_comment>  (432) 
None

$$$$

     RDKit          

 36 39  0  0  0  0  0  0  0  0999 V2000
    0.0000    0.0000    0.0000 C   0  0  0  0  0  0  0  0  0  0  0  0
    0.0000    0.0000    0.0000 C   0  0  0  0  0  0  0  0  0  0  0  0
    0.0000    0.0000    0.0000 C   0  0  0  0  0  0  0  0  0  0  0  0
    0.0000    0.0000    0.0000 C   0  0  0  0  0  0  0  0  0  0  0  0
    0.0000    0.0000    0.0000 C   0  0  0  0  0  0  0  0  0  0  0  0
    0.0000    0.0000    0.0000 N   0  0  0  0  0  0  0  0  0  0  0  0
    0.0000    0.0000    0.0000 C   0  0  0  0  0  0  0  0  0  0  0  0
    0.0000    0.0000    0.0000 C   0  0  0  0  0  0  0  0  0  0  0  0
    0.0000    0.0000    0.0000 C   0  0  0  0  0  0  0  0  0  0  0  0
    0.0000    0.0000    0.0000 N   0  0  0  0  0  0  0  0  0  0  0  0
    0.0000    0.0000    0.0000 C   0  0  0  0  0  0  0  0  0  0  0  0
    0.0000    0.0000    0.0000 F   0  0  0  0  0  0  0  0  0  0  0  0
    0.0000    0.0000    0.0000 F   0  0  0  0  0  0  0  0  0  0  0  0
    0.0000    0.0000    0.0000 F   0  0  0  0  0  0  0  0  0  0  0  0
    0.0000    0.0000    0.0000 N   0  0  0  0  0  0  0  0  0  0  0  0
    0.0000    0.0000    0.0000 C   0  0  0  0  0  0  0  0  0  0  0  0
    0.0000    0.0000    0.0000 C   0  0  0  0  0  0  0  0  0  0  0  0
    0.0000    0.0000    0.0000 N   0  0  0  0  0  0  0  0  0  0  0  0
    0.0000    0.0000    0.0000 C   0  0  0  0  0  0  0  0  0  0  0  0
    0.0000    0.0000    0.0000 C   0  0  0  0  0  0  0  0  0  0  0  0
    0.0000    0.0000    0.0000 C   0  0  0  0  0  0  0  0  0  0  0  0
    0.0000    0.0000    0.0000 C   0  0  0  0  0  0  0  0  0  0  0  0
    0.0000    0.0000    0.0000 N   0  0  0  0  0  0  0  0  0  0  0  0
    0.0000    0.0000    0.0000 C   0  0  0  0  0  0  0  0  0  0  0  0
    0.0000    0.0000    0.0000 O   0  0  0  0  0  0  0  0  0  0  0  0
    0.0000    0.0000    0.0000 C   0  0  0  0  0  0  0  0  0  0  0  0
    0.0000    0.0000    0.0000 C   0  0  0  0  0  0  0  0  0  0  0  0
    0.0000    0.0000    0.0000 N   0  0  0  0  0  0  0  0  0  0  0  0
    0.0000    0.0000    0.0000 C   0  0  0  0  0  0  0  0  0  0  0  0
    0.0000    0.0000    0.0000 C   0  0  0  0  0  0  0  0  0  0  0  0
    0.0000    0.0000    0.0000 N   0  0  0  0  0  0  0  0  0  0  0  0
    0.0000    0.0000    0.0000 C   0  0  0  0  0  0  0  0  0  0  0  0
    0.0000    0.0000    0.0000 C   0  0  0  0  0  0  0  0  0  0  0  0
    0.0000    0.0000    0.0000 N   0  0  0  0  0  0  0  0  0  0  0  0
    0.0000    0.0000    0.0000 C   0  0  0  0  0  0  0  0  0  0  0  0
    0.0000    0.0000    0.0000 C   0  0  0  0  0  0  0  0  0  0  0  0
  1  2  1  0
  2  3  1  0
  2  4  1  0
  2  5  1  0
  5  6  2  0
  6  7  1  0
  7  8  2  0
  8  9  1  0
  9 10  2  0
  9 11  1  0
 11 12  1  0
 11 13  1  0
 11 14  1  0
  7 15  1  0
 15 16  1  0
 16 17  1  0
 17 18  1  0
 18 19  1  0
 19 20  1  0
 20 21  1  0
 21 22  1  0
 22 23  1  0
 23 24  1  0
 24 25  2  0
 24 26  1  0
 26 27  2  0
 27 28  1  0
 28 29  1  0
 29 30  2  0
 30 31  1  0
 31 32  2  0
 32 33  1  0
 33 34  2  0
 18 35  1  0
 35 36  1  0
 10  5  1  0
 36 15  1  0
 34 26  1  0
 33 28  1  0
M  END
>  <pIC50>  (433) 
7.09666666667

>  <ChEMBL_ID>  (433) 
CHEMBL3323016

>  <document_journal>  (433) 
J. Med. Chem.

>  <bao_endpoint>  (433) 
BAO_0000190

>  <potential_duplicate>  (433) 
False

>  <uo_units>  (433) 
UO_0000065

>  <canonical_smiles>  (433) 
CC(C)(C)c1nc(cc(n1)C(F)(F)F)N2CCN(CCCCNC(=O)c3cn4ccncc4n3)CC2

>  <parent_molecule_chembl_id>  (433) 
CHEMBL3323016

>  <assay_type>  (433) 
B

>  <src_id>  (433) 
1

>  <ligand_efficiency>  (433) 
{u'le': u'0.24', u'bei': u'12.64', u'sei': u'6.97', u'lle': u'3.28'}

>  <standard_flag>  (433) 
True

>  <molecule_chembl_id>  (433) 
CHEMBL3323016

>  <target_organism>  (433) 
Homo sapiens

>  <standard_units>  (433) 
nM

>  <record_id>  (433) 
2265994

>  <document_chembl_id>  (433) 
CHEMBL3351252

>  <bao_format>  (433) 
BAO_0000219

>  <data_validity_description>  (433) 
None

>  <activity_id>  (433) 
14996159

>  <standard_type>  (433) 
IC50

>  <target_chembl_id>  (433) 
CHEMBL217

>  <data_validity_comment>  (433) 
None

>  <published_value>  (433) 
420

>  <document_year>  (433) 
2014

>  <target_pref_name>  (433) 
Dopamine D2 receptor

>  <assay_chembl_id>  (433) 
CHEMBL3379904

>  <standard_relation>  (433) 
=

>  <assay_description>  (433) 
Antagonist activity against human D2R expressed in CHO cells assessed as inhibition of quinpirole-induced mitogenesis after 24 hrs by [3H]thymidine uptake assay

>  <published_relation>  (433) 
=

>  <standard_value>  (433) 
420

>  <qudt_units>  (433) 
http://www.openphacts.org/units/Nanomolar

>  <target_tax_id>  (433) 
9606

>  <bao_label>  (433) 
cell-based format

>  <published_units>  (433) 
nM

>  <pchembl_value>  (433) 
6.38

>  <published_type>  (433) 
IC50

>  <activity_comment>  (433) 
None

$$$$

     RDKit          

 37 40  0  0  0  0  0  0  0  0999 V2000
    0.0000    0.0000    0.0000 C   0  0  0  0  0  0  0  0  0  0  0  0
    0.0000    0.0000    0.0000 C   0  0  0  0  0  0  0  0  0  0  0  0
    0.0000    0.0000    0.0000 C   0  0  0  0  0  0  0  0  0  0  0  0
    0.0000    0.0000    0.0000 C   0  0  0  0  0  0  0  0  0  0  0  0
    0.0000    0.0000    0.0000 C   0  0  0  0  0  0  0  0  0  0  0  0
    0.0000    0.0000    0.0000 N   0  0  0  0  0  0  0  0  0  0  0  0
    0.0000    0.0000    0.0000 C   0  0  0  0  0  0  0  0  0  0  0  0
    0.0000    0.0000    0.0000 C   0  0  0  0  0  0  0  0  0  0  0  0
    0.0000    0.0000    0.0000 C   0  0  0  0  0  0  0  0  0  0  0  0
    0.0000    0.0000    0.0000 N   0  0  0  0  0  0  0  0  0  0  0  0
    0.0000    0.0000    0.0000 C   0  0  0  0  0  0  0  0  0  0  0  0
    0.0000    0.0000    0.0000 F   0  0  0  0  0  0  0  0  0  0  0  0
    0.0000    0.0000    0.0000 F   0  0  0  0  0  0  0  0  0  0  0  0
    0.0000    0.0000    0.0000 F   0  0  0  0  0  0  0  0  0  0  0  0
    0.0000    0.0000    0.0000 N   0  0  0  0  0  0  0  0  0  0  0  0
    0.0000    0.0000    0.0000 C   0  0  0  0  0  0  0  0  0  0  0  0
    0.0000    0.0000    0.0000 C   0  0  0  0  0  0  0  0  0  0  0  0
    0.0000    0.0000    0.0000 N   0  0  0  0  0  0  0  0  0  0  0  0
    0.0000    0.0000    0.0000 C   0  0  0  0  0  0  0  0  0  0  0  0
    0.0000    0.0000    0.0000 C   0  0  0  0  0  0  0  0  0  0  0  0
    0.0000    0.0000    0.0000 C   0  0  0  0  0  0  0  0  0  0  0  0
    0.0000    0.0000    0.0000 C   0  0  0  0  0  0  0  0  0  0  0  0
    0.0000    0.0000    0.0000 N   0  0  0  0  0  0  0  0  0  0  0  0
    0.0000    0.0000    0.0000 C   0  0  0  0  0  0  0  0  0  0  0  0
    0.0000    0.0000    0.0000 O   0  0  0  0  0  0  0  0  0  0  0  0
    0.0000    0.0000    0.0000 C   0  0  0  0  0  0  0  0  0  0  0  0
    0.0000    0.0000    0.0000 C   0  0  0  0  0  0  0  0  0  0  0  0
    0.0000    0.0000    0.0000 N   0  0  0  0  0  0  0  0  0  0  0  0
    0.0000    0.0000    0.0000 N   0  0  0  0  0  0  0  0  0  0  0  0
    0.0000    0.0000    0.0000 C   0  0  0  0  0  0  0  0  0  0  0  0
    0.0000    0.0000    0.0000 Cl  0  0  0  0  0  0  0  0  0  0  0  0
    0.0000    0.0000    0.0000 C   0  0  0  0  0  0  0  0  0  0  0  0
    0.0000    0.0000    0.0000 C   0  0  0  0  0  0  0  0  0  0  0  0
    0.0000    0.0000    0.0000 C   0  0  0  0  0  0  0  0  0  0  0  0
    0.0000    0.0000    0.0000 N   0  0  0  0  0  0  0  0  0  0  0  0
    0.0000    0.0000    0.0000 C   0  0  0  0  0  0  0  0  0  0  0  0
    0.0000    0.0000    0.0000 C   0  0  0  0  0  0  0  0  0  0  0  0
  1  2  1  0
  2  3  1  0
  2  4  1  0
  2  5  1  0
  5  6  2  0
  6  7  1  0
  7  8  2  0
  8  9  1  0
  9 10  2  0
  9 11  1  0
 11 12  1  0
 11 13  1  0
 11 14  1  0
  7 15  1  0
 15 16  1  0
 16 17  1  0
 17 18  1  0
 18 19  1  0
 19 20  1  0
 20 21  1  0
 21 22  1  0
 22 23  1  0
 23 24  1  0
 24 25  2  0
 24 26  1  0
 26 27  2  0
 27 28  1  0
 28 29  1  0
 29 30  2  0
 30 31  1  0
 30 32  1  0
 32 33  2  0
 33 34  1  0
 34 35  2  0
 18 36  1  0
 36 37  1  0
 10  5  1  0
 37 15  1  0
 35 26  1  0
 34 28  1  0
M  END
>  <pIC50>  (434) 
6.8

>  <ChEMBL_ID>  (434) 
CHEMBL3323017

>  <document_journal>  (434) 
J. Med. Chem.

>  <bao_endpoint>  (434) 
BAO_0000190

>  <potential_duplicate>  (434) 
False

>  <uo_units>  (434) 
UO_0000065

>  <canonical_smiles>  (434) 
CC(C)(C)c1nc(cc(n1)C(F)(F)F)N2CCN(CCCCNC(=O)c3cn4nc(Cl)ccc4n3)CC2

>  <parent_molecule_chembl_id>  (434) 
CHEMBL3323017

>  <assay_type>  (434) 
B

>  <src_id>  (434) 
1

>  <ligand_efficiency>  (434) 
{u'le': u'0.22', u'bei': u'11.01', u'sei': u'6.48', u'lle': u'1.28'}

>  <standard_flag>  (434) 
True

>  <molecule_chembl_id>  (434) 
CHEMBL3323017

>  <target_organism>  (434) 
Homo sapiens

>  <standard_units>  (434) 
nM

>  <record_id>  (434) 
2265995

>  <document_chembl_id>  (434) 
CHEMBL3351252

>  <bao_format>  (434) 
BAO_0000219

>  <data_validity_description>  (434) 
None

>  <activity_id>  (434) 
14996160

>  <standard_type>  (434) 
IC50

>  <target_chembl_id>  (434) 
CHEMBL217

>  <data_validity_comment>  (434) 
None

>  <published_value>  (434) 
1160

>  <document_year>  (434) 
2014

>  <target_pref_name>  (434) 
Dopamine D2 receptor

>  <assay_chembl_id>  (434) 
CHEMBL3379904

>  <standard_relation>  (434) 
=

>  <assay_description>  (434) 
Antagonist activity against human D2R expressed in CHO cells assessed as inhibition of quinpirole-induced mitogenesis after 24 hrs by [3H]thymidine uptake assay

>  <published_relation>  (434) 
=

>  <standard_value>  (434) 
1160

>  <qudt_units>  (434) 
http://www.openphacts.org/units/Nanomolar

>  <target_tax_id>  (434) 
9606

>  <bao_label>  (434) 
cell-based format

>  <published_units>  (434) 
nM

>  <pchembl_value>  (434) 
5.94

>  <published_type>  (434) 
IC50

>  <activity_comment>  (434) 
None

$$$$

     RDKit          

 32 35  0  0  0  0  0  0  0  0999 V2000
    0.0000    0.0000    0.0000 F   0  0  0  0  0  0  0  0  0  0  0  0
    0.0000    0.0000    0.0000 C   0  0  0  0  0  0  0  0  0  0  0  0
    0.0000    0.0000    0.0000 F   0  0  0  0  0  0  0  0  0  0  0  0
    0.0000    0.0000    0.0000 F   0  0  0  0  0  0  0  0  0  0  0  0
    0.0000    0.0000    0.0000 C   0  0  0  0  0  0  0  0  0  0  0  0
    0.0000    0.0000    0.0000 C   0  0  0  0  0  0  0  0  0  0  0  0
    0.0000    0.0000    0.0000 C   0  0  0  0  0  0  0  0  0  0  0  0
    0.0000    0.0000    0.0000 C   0  0  0  0  0  0  0  0  0  0  0  0
    0.0000    0.0000    0.0000 C   0  0  0  0  0  0  0  0  0  0  0  0
    0.0000    0.0000    0.0000 C   0  0  0  0  0  0  0  0  0  0  0  0
    0.0000    0.0000    0.0000 N   0  0  0  0  0  0  0  0  0  0  0  0
    0.0000    0.0000    0.0000 C   0  0  0  0  0  0  0  0  0  0  0  0
    0.0000    0.0000    0.0000 C   0  0  0  0  0  0  0  0  0  0  0  0
    0.0000    0.0000    0.0000 N   0  0  0  0  0  0  0  0  0  0  0  0
    0.0000    0.0000    0.0000 C   0  0  0  0  0  0  0  0  0  0  0  0
    0.0000    0.0000    0.0000 C   0  0  0  0  0  0  0  0  0  0  0  0
    0.0000    0.0000    0.0000 C   0  0  0  0  0  0  0  0  0  0  0  0
    0.0000    0.0000    0.0000 C   0  0  0  0  0  0  0  0  0  0  0  0
    0.0000    0.0000    0.0000 N   0  0  0  0  0  0  0  0  0  0  0  0
    0.0000    0.0000    0.0000 C   0  0  0  0  0  0  0  0  0  0  0  0
    0.0000    0.0000    0.0000 O   0  0  0  0  0  0  0  0  0  0  0  0
    0.0000    0.0000    0.0000 C   0  0  0  0  0  0  0  0  0  0  0  0
    0.0000    0.0000    0.0000 C   0  0  0  0  0  0  0  0  0  0  0  0
    0.0000    0.0000    0.0000 N   0  0  0  0  0  0  0  0  0  0  0  0
    0.0000    0.0000    0.0000 C   0  0  0  0  0  0  0  0  0  0  0  0
    0.0000    0.0000    0.0000 C   0  0  0  0  0  0  0  0  0  0  0  0
    0.0000    0.0000    0.0000 C   0  0  0  0  0  0  0  0  0  0  0  0
    0.0000    0.0000    0.0000 C   0  0  0  0  0  0  0  0  0  0  0  0
    0.0000    0.0000    0.0000 C   0  0  0  0  0  0  0  0  0  0  0  0
    0.0000    0.0000    0.0000 N   0  0  0  0  0  0  0  0  0  0  0  0
    0.0000    0.0000    0.0000 C   0  0  0  0  0  0  0  0  0  0  0  0
    0.0000    0.0000    0.0000 C   0  0  0  0  0  0  0  0  0  0  0  0
  1  2  1  0
  2  3  1  0
  2  4  1  0
  2  5  1  0
  5  6  2  0
  6  7  1  0
  7  8  2  0
  8  9  1  0
  9 10  2  0
  9 11  1  0
 11 12  1  0
 12 13  1  0
 13 14  1  0
 14 15  1  0
 15 16  1  0
 16 17  1  0
 17 18  1  0
 18 19  1  0
 19 20  1  0
 20 21  2  0
 20 22  1  0
 22 23  2  0
 23 24  1  0
 24 25  1  0
 25 26  2  0
 26 27  1  0
 27 28  2  0
 28 29  1  0
 29 30  2  0
 14 31  1  0
 31 32  1  0
 10  5  1  0
 32 11  1  0
 30 22  1  0
 29 24  1  0
M  END
>  <pIC50>  (435) 
7.22

>  <ChEMBL_ID>  (435) 
CHEMBL3322995

>  <document_journal>  (435) 
J. Med. Chem.

>  <bao_endpoint>  (435) 
BAO_0000190

>  <potential_duplicate>  (435) 
False

>  <uo_units>  (435) 
UO_0000065

>  <canonical_smiles>  (435) 
FC(F)(F)c1cccc(c1)N2CCN(CCCCNC(=O)c3cn4ccccc4n3)CC2

>  <parent_molecule_chembl_id>  (435) 
CHEMBL3322995

>  <assay_type>  (435) 
B

>  <src_id>  (435) 
1

>  <ligand_efficiency>  (435) 
{u'le': u'0.31', u'bei': u'16.21', u'sei': u'13.66', u'lle': u'3.66'}

>  <standard_flag>  (435) 
True

>  <molecule_chembl_id>  (435) 
CHEMBL3322995

>  <target_organism>  (435) 
Homo sapiens

>  <standard_units>  (435) 
nM

>  <record_id>  (435) 
2265973

>  <document_chembl_id>  (435) 
CHEMBL3351252

>  <bao_format>  (435) 
BAO_0000219

>  <data_validity_description>  (435) 
None

>  <activity_id>  (435) 
14996269

>  <standard_type>  (435) 
IC50

>  <target_chembl_id>  (435) 
CHEMBL217

>  <data_validity_comment>  (435) 
None

>  <published_value>  (435) 
60

>  <document_year>  (435) 
2014

>  <target_pref_name>  (435) 
Dopamine D2 receptor

>  <assay_chembl_id>  (435) 
CHEMBL3372144

>  <standard_relation>  (435) 
=

>  <assay_description>  (435) 
Antagonist activity against human D2LR expressed in CHOK1 cells assessed as inhibition of pergolide-induced beta-arrestin translocation by beta-galactosidase based beta-arrestin recruitment assay

>  <published_relation>  (435) 
=

>  <standard_value>  (435) 
60

>  <qudt_units>  (435) 
http://www.openphacts.org/units/Nanomolar

>  <target_tax_id>  (435) 
9606

>  <bao_label>  (435) 
cell-based format

>  <published_units>  (435) 
nM

>  <pchembl_value>  (435) 
7.22

>  <published_type>  (435) 
IC50

>  <activity_comment>  (435) 
None

$$$$

     RDKit          

 32 36  0  0  0  0  0  0  0  0999 V2000
    0.0000    0.0000    0.0000 O   0  0  0  0  0  0  0  0  0  0  0  0
    0.0000    0.0000    0.0000 C   0  0  0  0  0  0  0  0  0  0  0  0
    0.0000    0.0000    0.0000 N   0  0  0  0  0  0  0  0  0  0  0  0
    0.0000    0.0000    0.0000 C   0  0  0  0  0  0  0  0  0  0  0  0
    0.0000    0.0000    0.0000 C   0  0  0  0  0  0  0  0  0  0  0  0
    0.0000    0.0000    0.0000 C   0  0  0  0  0  0  0  0  0  0  0  0
    0.0000    0.0000    0.0000 C   0  0  0  0  0  0  0  0  0  0  0  0
    0.0000    0.0000    0.0000 N   0  0  0  0  0  0  0  0  0  0  0  0
    0.0000    0.0000    0.0000 C   0  0  0  0  0  0  0  0  0  0  0  0
    0.0000    0.0000    0.0000 C   0  0  0  0  0  0  0  0  0  0  0  0
    0.0000    0.0000    0.0000 N   0  0  0  0  0  0  0  0  0  0  0  0
    0.0000    0.0000    0.0000 C   0  0  0  0  0  0  0  0  0  0  0  0
    0.0000    0.0000    0.0000 C   0  0  0  0  0  0  0  0  0  0  0  0
    0.0000    0.0000    0.0000 C   0  0  0  0  0  0  0  0  0  0  0  0
    0.0000    0.0000    0.0000 C   0  0  0  0  0  0  0  0  0  0  0  0
    0.0000    0.0000    0.0000 C   0  0  0  0  0  0  0  0  0  0  0  0
    0.0000    0.0000    0.0000 N   0  0  0  0  0  0  0  0  0  0  0  0
    0.0000    0.0000    0.0000 C   0  0  0  0  0  0  0  0  0  0  0  0
    0.0000    0.0000    0.0000 C   0  0  0  0  0  0  0  0  0  0  0  0
    0.0000    0.0000    0.0000 C   0  0  0  0  0  0  0  0  0  0  0  0
    0.0000    0.0000    0.0000 C   0  0  0  0  0  0  0  0  0  0  0  0
    0.0000    0.0000    0.0000 C   0  0  0  0  0  0  0  0  0  0  0  0
    0.0000    0.0000    0.0000 C   0  0  0  0  0  0  0  0  0  0  0  0
    0.0000    0.0000    0.0000 C   0  0  0  0  0  0  0  0  0  0  0  0
    0.0000    0.0000    0.0000 C   0  0  0  0  0  0  0  0  0  0  0  0
    0.0000    0.0000    0.0000 N   0  0  0  0  0  0  0  0  0  0  0  0
    0.0000    0.0000    0.0000 C   0  0  0  0  0  0  0  0  0  0  0  0
    0.0000    0.0000    0.0000 C   0  0  0  0  0  0  0  0  0  0  0  0
    0.0000    0.0000    0.0000 C   0  0  0  0  0  0  0  0  0  0  0  0
    0.0000    0.0000    0.0000 C   0  0  0  0  0  0  0  0  0  0  0  0
    0.0000    0.0000    0.0000 C   0  0  0  0  0  0  0  0  0  0  0  0
    0.0000    0.0000    0.0000 N   0  0  0  0  0  0  0  0  0  0  0  0
  1  2  2  0
  2  3  1  0
  3  4  1  0
  4  5  1  0
  5  6  1  0
  6  7  1  0
  7  8  1  0
  8  9  1  0
  9 10  1  0
 10 11  1  0
 11 12  1  0
 12 13  1  0
 11 14  1  0
 14 15  2  0
 15 16  1  0
 16 17  2  0
 17 18  1  0
 18 19  2  0
 19 20  1  0
 20 21  2  0
 21 22  1  0
 22 23  2  0
  2 24  1  0
 24 25  2  0
 25 26  1  0
 26 27  1  0
 27 28  2  0
 28 29  1  0
 29 30  2  0
 30 31  1  0
 31 32  2  0
 13  8  1  0
 23 14  1  0
 23 18  1  0
 32 24  1  0
 31 26  1  0
M  END
>  <pIC50>  (436) 
6.79

>  <ChEMBL_ID>  (436) 
CHEMBL3322998

>  <document_journal>  (436) 
J. Med. Chem.

>  <bao_endpoint>  (436) 
BAO_0000190

>  <potential_duplicate>  (436) 
False

>  <uo_units>  (436) 
UO_0000065

>  <canonical_smiles>  (436) 
O=C(NCCCCN1CCN(CC1)c2ccnc3ccccc23)c4cn5ccccc5n4

>  <parent_molecule_chembl_id>  (436) 
CHEMBL3322998

>  <assay_type>  (436) 
B

>  <src_id>  (436) 
1

>  <ligand_efficiency>  (436) 
{u'le': u'0.29', u'bei': u'15.85', u'sei': u'10.33', u'lle': u'3.99'}

>  <standard_flag>  (436) 
True

>  <molecule_chembl_id>  (436) 
CHEMBL3322998

>  <target_organism>  (436) 
Homo sapiens

>  <standard_units>  (436) 
nM

>  <record_id>  (436) 
2265976

>  <document_chembl_id>  (436) 
CHEMBL3351252

>  <bao_format>  (436) 
BAO_0000219

>  <data_validity_description>  (436) 
None

>  <activity_id>  (436) 
14996270

>  <standard_type>  (436) 
IC50

>  <target_chembl_id>  (436) 
CHEMBL217

>  <data_validity_comment>  (436) 
None

>  <published_value>  (436) 
161

>  <document_year>  (436) 
2014

>  <target_pref_name>  (436) 
Dopamine D2 receptor

>  <assay_chembl_id>  (436) 
CHEMBL3372144

>  <standard_relation>  (436) 
=

>  <assay_description>  (436) 
Antagonist activity against human D2LR expressed in CHOK1 cells assessed as inhibition of pergolide-induced beta-arrestin translocation by beta-galactosidase based beta-arrestin recruitment assay

>  <published_relation>  (436) 
=

>  <standard_value>  (436) 
161

>  <qudt_units>  (436) 
http://www.openphacts.org/units/Nanomolar

>  <target_tax_id>  (436) 
9606

>  <bao_label>  (436) 
cell-based format

>  <published_units>  (436) 
nM

>  <pchembl_value>  (436) 
6.79

>  <published_type>  (436) 
IC50

>  <activity_comment>  (436) 
None

$$$$

     RDKit          

 32 36  0  0  0  0  0  0  0  0999 V2000
    0.0000    0.0000    0.0000 O   0  0  0  0  0  0  0  0  0  0  0  0
    0.0000    0.0000    0.0000 C   0  0  0  0  0  0  0  0  0  0  0  0
    0.0000    0.0000    0.0000 N   0  0  0  0  0  0  0  0  0  0  0  0
    0.0000    0.0000    0.0000 C   0  0  0  0  0  0  0  0  0  0  0  0
    0.0000    0.0000    0.0000 C   0  0  0  0  0  0  0  0  0  0  0  0
    0.0000    0.0000    0.0000 C   0  0  0  0  0  0  0  0  0  0  0  0
    0.0000    0.0000    0.0000 C   0  0  0  0  0  0  0  0  0  0  0  0
    0.0000    0.0000    0.0000 N   0  0  0  0  0  0  0  0  0  0  0  0
    0.0000    0.0000    0.0000 C   0  0  0  0  0  0  0  0  0  0  0  0
    0.0000    0.0000    0.0000 C   0  0  0  0  0  0  0  0  0  0  0  0
    0.0000    0.0000    0.0000 N   0  0  0  0  0  0  0  0  0  0  0  0
    0.0000    0.0000    0.0000 C   0  0  0  0  0  0  0  0  0  0  0  0
    0.0000    0.0000    0.0000 C   0  0  0  0  0  0  0  0  0  0  0  0
    0.0000    0.0000    0.0000 C   0  0  0  0  0  0  0  0  0  0  0  0
    0.0000    0.0000    0.0000 N   0  0  0  0  0  0  0  0  0  0  0  0
    0.0000    0.0000    0.0000 C   0  0  0  0  0  0  0  0  0  0  0  0
    0.0000    0.0000    0.0000 N   0  0  0  0  0  0  0  0  0  0  0  0
    0.0000    0.0000    0.0000 C   0  0  0  0  0  0  0  0  0  0  0  0
    0.0000    0.0000    0.0000 C   0  0  0  0  0  0  0  0  0  0  0  0
    0.0000    0.0000    0.0000 C   0  0  0  0  0  0  0  0  0  0  0  0
    0.0000    0.0000    0.0000 C   0  0  0  0  0  0  0  0  0  0  0  0
    0.0000    0.0000    0.0000 C   0  0  0  0  0  0  0  0  0  0  0  0
    0.0000    0.0000    0.0000 C   0  0  0  0  0  0  0  0  0  0  0  0
    0.0000    0.0000    0.0000 C   0  0  0  0  0  0  0  0  0  0  0  0
    0.0000    0.0000    0.0000 C   0  0  0  0  0  0  0  0  0  0  0  0
    0.0000    0.0000    0.0000 N   0  0  0  0  0  0  0  0  0  0  0  0
    0.0000    0.0000    0.0000 C   0  0  0  0  0  0  0  0  0  0  0  0
    0.0000    0.0000    0.0000 C   0  0  0  0  0  0  0  0  0  0  0  0
    0.0000    0.0000    0.0000 C   0  0  0  0  0  0  0  0  0  0  0  0
    0.0000    0.0000    0.0000 C   0  0  0  0  0  0  0  0  0  0  0  0
    0.0000    0.0000    0.0000 C   0  0  0  0  0  0  0  0  0  0  0  0
    0.0000    0.0000    0.0000 N   0  0  0  0  0  0  0  0  0  0  0  0
  1  2  2  0
  2  3  1  0
  3  4  1  0
  4  5  1  0
  5  6  1  0
  6  7  1  0
  7  8  1  0
  8  9  1  0
  9 10  1  0
 10 11  1  0
 11 12  1  0
 12 13  1  0
 11 14  1  0
 14 15  2  0
 15 16  1  0
 16 17  2  0
 17 18  1  0
 18 19  2  0
 19 20  1  0
 20 21  2  0
 21 22  1  0
 22 23  2  0
  2 24  1  0
 24 25  2  0
 25 26  1  0
 26 27  1  0
 27 28  2  0
 28 29  1  0
 29 30  2  0
 30 31  1  0
 31 32  2  0
 13  8  1  0
 23 14  1  0
 23 18  1  0
 32 24  1  0
 31 26  1  0
M  END
>  <pIC50>  (437) 
6.61

>  <ChEMBL_ID>  (437) 
CHEMBL3323003

>  <document_journal>  (437) 
J. Med. Chem.

>  <bao_endpoint>  (437) 
BAO_0000190

>  <potential_duplicate>  (437) 
False

>  <uo_units>  (437) 
UO_0000065

>  <canonical_smiles>  (437) 
O=C(NCCCCN1CCN(CC1)c2ncnc3ccccc23)c4cn5ccccc5n4

>  <parent_molecule_chembl_id>  (437) 
CHEMBL3323003

>  <assay_type>  (437) 
B

>  <src_id>  (437) 
1

>  <ligand_efficiency>  (437) 
{u'le': u'0.28', u'bei': u'15.38', u'sei': u'8.4', u'lle': u'3.9'}

>  <standard_flag>  (437) 
True

>  <molecule_chembl_id>  (437) 
CHEMBL3323003

>  <target_organism>  (437) 
Homo sapiens

>  <standard_units>  (437) 
nM

>  <record_id>  (437) 
2265981

>  <document_chembl_id>  (437) 
CHEMBL3351252

>  <bao_format>  (437) 
BAO_0000219

>  <data_validity_description>  (437) 
None

>  <activity_id>  (437) 
14996271

>  <standard_type>  (437) 
IC50

>  <target_chembl_id>  (437) 
CHEMBL217

>  <data_validity_comment>  (437) 
None

>  <published_value>  (437) 
248

>  <document_year>  (437) 
2014

>  <target_pref_name>  (437) 
Dopamine D2 receptor

>  <assay_chembl_id>  (437) 
CHEMBL3372144

>  <standard_relation>  (437) 
=

>  <assay_description>  (437) 
Antagonist activity against human D2LR expressed in CHOK1 cells assessed as inhibition of pergolide-induced beta-arrestin translocation by beta-galactosidase based beta-arrestin recruitment assay

>  <published_relation>  (437) 
=

>  <standard_value>  (437) 
248

>  <qudt_units>  (437) 
http://www.openphacts.org/units/Nanomolar

>  <target_tax_id>  (437) 
9606

>  <bao_label>  (437) 
cell-based format

>  <published_units>  (437) 
nM

>  <pchembl_value>  (437) 
6.61

>  <published_type>  (437) 
IC50

>  <activity_comment>  (437) 
None

$$$$

     RDKit          

 36 39  0  0  0  0  0  0  0  0999 V2000
    0.0000    0.0000    0.0000 C   0  0  0  0  0  0  0  0  0  0  0  0
    0.0000    0.0000    0.0000 C   0  0  0  0  0  0  0  0  0  0  0  0
    0.0000    0.0000    0.0000 C   0  0  0  0  0  0  0  0  0  0  0  0
    0.0000    0.0000    0.0000 C   0  0  0  0  0  0  0  0  0  0  0  0
    0.0000    0.0000    0.0000 C   0  0  0  0  0  0  0  0  0  0  0  0
    0.0000    0.0000    0.0000 N   0  0  0  0  0  0  0  0  0  0  0  0
    0.0000    0.0000    0.0000 C   0  0  0  0  0  0  0  0  0  0  0  0
    0.0000    0.0000    0.0000 C   0  0  0  0  0  0  0  0  0  0  0  0
    0.0000    0.0000    0.0000 C   0  0  0  0  0  0  0  0  0  0  0  0
    0.0000    0.0000    0.0000 N   0  0  0  0  0  0  0  0  0  0  0  0
    0.0000    0.0000    0.0000 C   0  0  0  0  0  0  0  0  0  0  0  0
    0.0000    0.0000    0.0000 F   0  0  0  0  0  0  0  0  0  0  0  0
    0.0000    0.0000    0.0000 F   0  0  0  0  0  0  0  0  0  0  0  0
    0.0000    0.0000    0.0000 F   0  0  0  0  0  0  0  0  0  0  0  0
    0.0000    0.0000    0.0000 N   0  0  0  0  0  0  0  0  0  0  0  0
    0.0000    0.0000    0.0000 C   0  0  0  0  0  0  0  0  0  0  0  0
    0.0000    0.0000    0.0000 C   0  0  0  0  0  0  0  0  0  0  0  0
    0.0000    0.0000    0.0000 N   0  0  0  0  0  0  0  0  0  0  0  0
    0.0000    0.0000    0.0000 C   0  0  0  0  0  0  0  0  0  0  0  0
    0.0000    0.0000    0.0000 C   0  0  0  0  0  0  0  0  0  0  0  0
    0.0000    0.0000    0.0000 C   0  0  0  0  0  0  0  0  0  0  0  0
    0.0000    0.0000    0.0000 C   0  0  0  0  0  0  0  0  0  0  0  0
    0.0000    0.0000    0.0000 N   0  0  0  0  0  0  0  0  0  0  0  0
    0.0000    0.0000    0.0000 C   0  0  0  0  0  0  0  0  0  0  0  0
    0.0000    0.0000    0.0000 O   0  0  0  0  0  0  0  0  0  0  0  0
    0.0000    0.0000    0.0000 C   0  0  0  0  0  0  0  0  0  0  0  0
    0.0000    0.0000    0.0000 C   0  0  0  0  0  0  0  0  0  0  0  0
    0.0000    0.0000    0.0000 C   0  0  0  0  0  0  0  0  0  0  0  0
    0.0000    0.0000    0.0000 C   0  0  0  0  0  0  0  0  0  0  0  0
    0.0000    0.0000    0.0000 C   0  0  0  0  0  0  0  0  0  0  0  0
    0.0000    0.0000    0.0000 C   0  0  0  0  0  0  0  0  0  0  0  0
    0.0000    0.0000    0.0000 C   0  0  0  0  0  0  0  0  0  0  0  0
    0.0000    0.0000    0.0000 C   0  0  0  0  0  0  0  0  0  0  0  0
    0.0000    0.0000    0.0000 N   0  0  0  0  0  0  0  0  0  0  0  0
    0.0000    0.0000    0.0000 C   0  0  0  0  0  0  0  0  0  0  0  0
    0.0000    0.0000    0.0000 C   0  0  0  0  0  0  0  0  0  0  0  0
  1  2  1  0
  2  3  1  0
  2  4  1  0
  2  5  1  0
  5  6  2  0
  6  7  1  0
  7  8  2  0
  8  9  1  0
  9 10  2  0
  9 11  1  0
 11 12  1  0
 11 13  1  0
 11 14  1  0
  7 15  1  0
 15 16  1  0
 16 17  1  0
 17 18  1  0
 18 19  1  0
 19 20  1  0
 20 21  1  0
 21 22  1  0
 22 23  1  0
 23 24  1  0
 24 25  2  0
 24 26  1  0
 26 27  2  0
 27 28  1  0
 28 29  2  0
 29 30  1  0
 30 31  2  0
 31 32  1  0
 32 33  2  0
 33 34  1  0
 18 35  1  0
 35 36  1  0
 10  5  1  0
 36 15  1  0
 34 26  1  0
 33 28  1  0
M  END
>  <pIC50>  (438) 
6.38

>  <ChEMBL_ID>  (438) 
CHEMBL3323012

>  <document_journal>  (438) 
J. Med. Chem.

>  <bao_endpoint>  (438) 
BAO_0000190

>  <potential_duplicate>  (438) 
False

>  <uo_units>  (438) 
UO_0000065

>  <canonical_smiles>  (438) 
CC(C)(C)c1nc(cc(n1)C(F)(F)F)N2CCN(CCCCNC(=O)c3cc4ccccc4[nH]3)CC2

>  <parent_molecule_chembl_id>  (438) 
CHEMBL3323012

>  <assay_type>  (438) 
B

>  <src_id>  (438) 
1

>  <ligand_efficiency>  (438) 
{u'le': u'0.24', u'bei': u'12.69', u'sei': u'8.27', u'lle': u'0.71'}

>  <standard_flag>  (438) 
True

>  <molecule_chembl_id>  (438) 
CHEMBL3323012

>  <target_organism>  (438) 
Homo sapiens

>  <standard_units>  (438) 
nM

>  <record_id>  (438) 
2265990

>  <document_chembl_id>  (438) 
CHEMBL3351252

>  <bao_format>  (438) 
BAO_0000219

>  <data_validity_description>  (438) 
None

>  <activity_id>  (438) 
14996273

>  <standard_type>  (438) 
IC50

>  <target_chembl_id>  (438) 
CHEMBL217

>  <data_validity_comment>  (438) 
None

>  <published_value>  (438) 
418

>  <document_year>  (438) 
2014

>  <target_pref_name>  (438) 
Dopamine D2 receptor

>  <assay_chembl_id>  (438) 
CHEMBL3372144

>  <standard_relation>  (438) 
=

>  <assay_description>  (438) 
Antagonist activity against human D2LR expressed in CHOK1 cells assessed as inhibition of pergolide-induced beta-arrestin translocation by beta-galactosidase based beta-arrestin recruitment assay

>  <published_relation>  (438) 
=

>  <standard_value>  (438) 
418

>  <qudt_units>  (438) 
http://www.openphacts.org/units/Nanomolar

>  <target_tax_id>  (438) 
9606

>  <bao_label>  (438) 
cell-based format

>  <published_units>  (438) 
nM

>  <pchembl_value>  (438) 
6.38

>  <published_type>  (438) 
IC50

>  <activity_comment>  (438) 
None

$$$$

     RDKit          

 40 43  0  0  0  0  0  0  0  0999 V2000
    0.0000    0.0000    0.0000 C   0  0  0  0  0  0  0  0  0  0  0  0
    0.0000    0.0000    0.0000 N   0  0  0  0  0  0  0  0  0  0  0  0
    0.0000    0.0000    0.0000 C   0  0  0  0  0  0  0  0  0  0  0  0
    0.0000    0.0000    0.0000 C   0  0  0  0  0  0  0  0  0  0  0  0
    0.0000    0.0000    0.0000 C   0  0  0  0  0  0  0  0  0  0  0  0
    0.0000    0.0000    0.0000 C   0  0  0  0  0  0  0  0  0  0  0  0
    0.0000    0.0000    0.0000 N   0  0  0  0  0  0  0  0  0  0  0  0
    0.0000    0.0000    0.0000 C   0  0  0  0  0  0  0  0  0  0  0  0
    0.0000    0.0000    0.0000 C   0  0  0  0  0  0  0  0  0  0  0  0
    0.0000    0.0000    0.0000 C   0  0  0  0  0  0  0  0  0  0  0  0
    0.0000    0.0000    0.0000 C   0  0  0  0  0  0  0  0  0  0  0  0
    0.0000    0.0000    0.0000 C   0  0  0  0  0  0  0  0  0  0  0  0
    0.0000    0.0000    0.0000 C   0  0  0  0  0  0  0  0  0  0  0  0
    0.0000    0.0000    0.0000 C   0  0  0  0  0  0  0  0  0  0  0  0
    0.0000    0.0000    0.0000 O   0  0  0  0  0  0  0  0  0  0  0  0
    0.0000    0.0000    0.0000 N   0  0  0  0  0  0  0  0  0  0  0  0
    0.0000    0.0000    0.0000 C   0  0  0  0  0  0  0  0  0  0  0  0
    0.0000    0.0000    0.0000 C   0  0  0  0  0  0  0  0  0  0  0  0
    0.0000    0.0000    0.0000 C   0  0  0  0  0  0  0  0  0  0  0  0
    0.0000    0.0000    0.0000 C   0  0  0  0  0  0  0  0  0  0  0  0
    0.0000    0.0000    0.0000 N   0  0  0  0  0  0  0  0  0  0  0  0
    0.0000    0.0000    0.0000 C   0  0  0  0  0  0  0  0  0  0  0  0
    0.0000    0.0000    0.0000 C   0  0  0  0  0  0  0  0  0  0  0  0
    0.0000    0.0000    0.0000 N   0  0  0  0  0  0  0  0  0  0  0  0
    0.0000    0.0000    0.0000 C   0  0  0  0  0  0  0  0  0  0  0  0
    0.0000    0.0000    0.0000 C   0  0  0  0  0  0  0  0  0  0  0  0
    0.0000    0.0000    0.0000 C   0  0  0  0  0  0  0  0  0  0  0  0
    0.0000    0.0000    0.0000 C   0  0  0  0  0  0  0  0  0  0  0  0
    0.0000    0.0000    0.0000 C   0  0  0  0  0  0  0  0  0  0  0  0
    0.0000    0.0000    0.0000 N   0  0  0  0  0  0  0  0  0  0  0  0
    0.0000    0.0000    0.0000 C   0  0  0  0  0  0  0  0  0  0  0  0
    0.0000    0.0000    0.0000 N   0  0  0  0  0  0  0  0  0  0  0  0
    0.0000    0.0000    0.0000 C   0  0  0  0  0  0  0  0  0  0  0  0
    0.0000    0.0000    0.0000 C   0  0  0  0  0  0  0  0  0  0  0  0
    0.0000    0.0000    0.0000 C   0  0  0  0  0  0  0  0  0  0  0  0
    0.0000    0.0000    0.0000 C   0  0  0  0  0  0  0  0  0  0  0  0
    0.0000    0.0000    0.0000 C   0  0  0  0  0  0  0  0  0  0  0  0
    0.0000    0.0000    0.0000 F   0  0  0  0  0  0  0  0  0  0  0  0
    0.0000    0.0000    0.0000 F   0  0  0  0  0  0  0  0  0  0  0  0
    0.0000    0.0000    0.0000 F   0  0  0  0  0  0  0  0  0  0  0  0
  1  2  1  0
  2  3  1  0
  2  4  1  0
  4  5  1  0
  5  6  2  0
  6  7  1  0
  7  8  1  0
  8  9  2  0
  9 10  1  0
 10 11  2  0
 11 12  1  0
 12 13  2  0
  6 14  1  0
 14 15  2  0
 14 16  1  0
 16 17  1  0
 17 18  1  0
 18 19  1  0
 19 20  1  0
 20 21  1  0
 21 22  1  0
 22 23  1  0
 23 24  1  0
 24 25  1  0
 25 26  1  0
 24 27  1  0
 27 28  2  0
 28 29  1  0
 29 30  2  0
 30 31  1  0
 31 32  2  0
 31 33  1  0
 33 34  1  0
 33 35  1  0
 33 36  1  0
 29 37  1  0
 37 38  1  0
 37 39  1  0
 37 40  1  0
 13  5  1  0
 13  8  1  0
 26 21  1  0
 32 27  1  0
M  END
>  <pIC50>  (439) 
6.51

>  <ChEMBL_ID>  (439) 
CHEMBL3323019

>  <document_journal>  (439) 
J. Med. Chem.

>  <bao_endpoint>  (439) 
BAO_0000190

>  <potential_duplicate>  (439) 
False

>  <uo_units>  (439) 
UO_0000065

>  <canonical_smiles>  (439) 
CN(C)Cc1c([nH]c2ccccc12)C(=O)NCCCCN3CCN(CC3)c4cc(nc(n4)C(C)(C)C)C(F)(F)F

>  <parent_molecule_chembl_id>  (439) 
CHEMBL3323019

>  <assay_type>  (439) 
B

>  <src_id>  (439) 
1

>  <ligand_efficiency>  (439) 
{u'le': u'0.22', u'bei': u'11.63', u'sei': u'8.09', u'lle': u'0.77'}

>  <standard_flag>  (439) 
True

>  <molecule_chembl_id>  (439) 
CHEMBL3323019

>  <target_organism>  (439) 
Homo sapiens

>  <standard_units>  (439) 
nM

>  <record_id>  (439) 
2265997

>  <document_chembl_id>  (439) 
CHEMBL3351252

>  <bao_format>  (439) 
BAO_0000219

>  <data_validity_description>  (439) 
None

>  <activity_id>  (439) 
14996278

>  <standard_type>  (439) 
IC50

>  <target_chembl_id>  (439) 
CHEMBL217

>  <data_validity_comment>  (439) 
None

>  <published_value>  (439) 
311

>  <document_year>  (439) 
2014

>  <target_pref_name>  (439) 
Dopamine D2 receptor

>  <assay_chembl_id>  (439) 
CHEMBL3372144

>  <standard_relation>  (439) 
=

>  <assay_description>  (439) 
Antagonist activity against human D2LR expressed in CHOK1 cells assessed as inhibition of pergolide-induced beta-arrestin translocation by beta-galactosidase based beta-arrestin recruitment assay

>  <published_relation>  (439) 
=

>  <standard_value>  (439) 
311

>  <qudt_units>  (439) 
http://www.openphacts.org/units/Nanomolar

>  <target_tax_id>  (439) 
9606

>  <bao_label>  (439) 
cell-based format

>  <published_units>  (439) 
nM

>  <pchembl_value>  (439) 
6.51

>  <published_type>  (439) 
IC50

>  <activity_comment>  (439) 
None

$$$$

     RDKit          

 40 43  0  0  0  0  0  0  0  0999 V2000
    0.0000    0.0000    0.0000 C   0  0  0  0  0  0  0  0  0  0  0  0
    0.0000    0.0000    0.0000 N   0  0  0  0  0  0  0  0  0  0  0  0
    0.0000    0.0000    0.0000 C   0  0  0  0  0  0  0  0  0  0  0  0
    0.0000    0.0000    0.0000 C   0  0  0  0  0  0  0  0  0  0  0  0
    0.0000    0.0000    0.0000 C   0  0  0  0  0  0  0  0  0  0  0  0
    0.0000    0.0000    0.0000 C   0  0  0  0  0  0  0  0  0  0  0  0
    0.0000    0.0000    0.0000 N   0  0  0  0  0  0  0  0  0  0  0  0
    0.0000    0.0000    0.0000 C   0  0  0  0  0  0  0  0  0  0  0  0
    0.0000    0.0000    0.0000 C   0  0  0  0  0  0  0  0  0  0  0  0
    0.0000    0.0000    0.0000 C   0  0  0  0  0  0  0  0  0  0  0  0
    0.0000    0.0000    0.0000 C   0  0  0  0  0  0  0  0  0  0  0  0
    0.0000    0.0000    0.0000 C   0  0  0  0  0  0  0  0  0  0  0  0
    0.0000    0.0000    0.0000 N   0  0  0  0  0  0  0  0  0  0  0  0
    0.0000    0.0000    0.0000 C   0  0  0  0  0  0  0  0  0  0  0  0
    0.0000    0.0000    0.0000 O   0  0  0  0  0  0  0  0  0  0  0  0
    0.0000    0.0000    0.0000 N   0  0  0  0  0  0  0  0  0  0  0  0
    0.0000    0.0000    0.0000 C   0  0  0  0  0  0  0  0  0  0  0  0
    0.0000    0.0000    0.0000 C   0  0  0  0  0  0  0  0  0  0  0  0
    0.0000    0.0000    0.0000 C   0  0  0  0  0  0  0  0  0  0  0  0
    0.0000    0.0000    0.0000 C   0  0  0  0  0  0  0  0  0  0  0  0
    0.0000    0.0000    0.0000 N   0  0  0  0  0  0  0  0  0  0  0  0
    0.0000    0.0000    0.0000 C   0  0  0  0  0  0  0  0  0  0  0  0
    0.0000    0.0000    0.0000 C   0  0  0  0  0  0  0  0  0  0  0  0
    0.0000    0.0000    0.0000 N   0  0  0  0  0  0  0  0  0  0  0  0
    0.0000    0.0000    0.0000 C   0  0  0  0  0  0  0  0  0  0  0  0
    0.0000    0.0000    0.0000 C   0  0  0  0  0  0  0  0  0  0  0  0
    0.0000    0.0000    0.0000 C   0  0  0  0  0  0  0  0  0  0  0  0
    0.0000    0.0000    0.0000 C   0  0  0  0  0  0  0  0  0  0  0  0
    0.0000    0.0000    0.0000 C   0  0  0  0  0  0  0  0  0  0  0  0
    0.0000    0.0000    0.0000 N   0  0  0  0  0  0  0  0  0  0  0  0
    0.0000    0.0000    0.0000 C   0  0  0  0  0  0  0  0  0  0  0  0
    0.0000    0.0000    0.0000 N   0  0  0  0  0  0  0  0  0  0  0  0
    0.0000    0.0000    0.0000 C   0  0  0  0  0  0  0  0  0  0  0  0
    0.0000    0.0000    0.0000 C   0  0  0  0  0  0  0  0  0  0  0  0
    0.0000    0.0000    0.0000 C   0  0  0  0  0  0  0  0  0  0  0  0
    0.0000    0.0000    0.0000 C   0  0  0  0  0  0  0  0  0  0  0  0
    0.0000    0.0000    0.0000 C   0  0  0  0  0  0  0  0  0  0  0  0
    0.0000    0.0000    0.0000 F   0  0  0  0  0  0  0  0  0  0  0  0
    0.0000    0.0000    0.0000 F   0  0  0  0  0  0  0  0  0  0  0  0
    0.0000    0.0000    0.0000 F   0  0  0  0  0  0  0  0  0  0  0  0
  1  2  1  0
  2  3  1  0
  2  4  1  0
  4  5  1  0
  5  6  2  0
  6  7  1  0
  7  8  2  0
  8  9  1  0
  9 10  2  0
 10 11  1  0
 11 12  2  0
 12 13  1  0
  6 14  1  0
 14 15  2  0
 14 16  1  0
 16 17  1  0
 17 18  1  0
 18 19  1  0
 19 20  1  0
 20 21  1  0
 21 22  1  0
 22 23  1  0
 23 24  1  0
 24 25  1  0
 25 26  1  0
 24 27  1  0
 27 28  2  0
 28 29  1  0
 29 30  2  0
 30 31  1  0
 31 32  2  0
 31 33  1  0
 33 34  1  0
 33 35  1  0
 33 36  1  0
 29 37  1  0
 37 38  1  0
 37 39  1  0
 37 40  1  0
 13  5  1  0
 13  8  1  0
 26 21  1  0
 32 27  1  0
M  END
>  <pIC50>  (440) 
6.66

>  <ChEMBL_ID>  (440) 
CHEMBL3323112

>  <document_journal>  (440) 
J. Med. Chem.

>  <bao_endpoint>  (440) 
BAO_0000190

>  <potential_duplicate>  (440) 
False

>  <uo_units>  (440) 
UO_0000065

>  <canonical_smiles>  (440) 
CN(C)Cc1c(nc2ccccn12)C(=O)NCCCCN3CCN(CC3)c4cc(nc(n4)C(C)(C)C)C(F)(F)F

>  <parent_molecule_chembl_id>  (440) 
CHEMBL3323112

>  <assay_type>  (440) 
B

>  <src_id>  (440) 
1

>  <ligand_efficiency>  (440) 
{u'le': u'0.23', u'bei': u'11.89', u'sei': u'8.14', u'lle': u'2.12'}

>  <standard_flag>  (440) 
True

>  <molecule_chembl_id>  (440) 
CHEMBL3323112

>  <target_organism>  (440) 
Homo sapiens

>  <standard_units>  (440) 
nM

>  <record_id>  (440) 
2265998

>  <document_chembl_id>  (440) 
CHEMBL3351252

>  <bao_format>  (440) 
BAO_0000219

>  <data_validity_description>  (440) 
None

>  <activity_id>  (440) 
14996279

>  <standard_type>  (440) 
IC50

>  <target_chembl_id>  (440) 
CHEMBL217

>  <data_validity_comment>  (440) 
None

>  <published_value>  (440) 
217

>  <document_year>  (440) 
2014

>  <target_pref_name>  (440) 
Dopamine D2 receptor

>  <assay_chembl_id>  (440) 
CHEMBL3372144

>  <standard_relation>  (440) 
=

>  <assay_description>  (440) 
Antagonist activity against human D2LR expressed in CHOK1 cells assessed as inhibition of pergolide-induced beta-arrestin translocation by beta-galactosidase based beta-arrestin recruitment assay

>  <published_relation>  (440) 
=

>  <standard_value>  (440) 
217

>  <qudt_units>  (440) 
http://www.openphacts.org/units/Nanomolar

>  <target_tax_id>  (440) 
9606

>  <bao_label>  (440) 
cell-based format

>  <published_units>  (440) 
nM

>  <pchembl_value>  (440) 
6.66

>  <published_type>  (440) 
IC50

>  <activity_comment>  (440) 
None

$$$$

     RDKit          

 40 43  0  0  0  0  0  0  0  0999 V2000
    0.0000    0.0000    0.0000 C   0  0  0  0  0  0  0  0  0  0  0  0
    0.0000    0.0000    0.0000 N   0  0  0  0  0  0  0  0  0  0  0  0
    0.0000    0.0000    0.0000 C   0  0  0  0  0  0  0  0  0  0  0  0
    0.0000    0.0000    0.0000 C   0  0  0  0  0  0  0  0  0  0  0  0
    0.0000    0.0000    0.0000 C   0  0  0  0  0  0  0  0  0  0  0  0
    0.0000    0.0000    0.0000 C   0  0  0  0  0  0  0  0  0  0  0  0
    0.0000    0.0000    0.0000 C   0  0  0  0  0  0  0  0  0  0  0  0
    0.0000    0.0000    0.0000 C   0  0  0  0  0  0  0  0  0  0  0  0
    0.0000    0.0000    0.0000 C   0  0  0  0  0  0  0  0  0  0  0  0
    0.0000    0.0000    0.0000 N   0  0  0  0  0  0  0  0  0  0  0  0
    0.0000    0.0000    0.0000 C   0  0  0  0  0  0  0  0  0  0  0  0
    0.0000    0.0000    0.0000 C   0  0  0  0  0  0  0  0  0  0  0  0
    0.0000    0.0000    0.0000 N   0  0  0  0  0  0  0  0  0  0  0  0
    0.0000    0.0000    0.0000 C   0  0  0  0  0  0  0  0  0  0  0  0
    0.0000    0.0000    0.0000 O   0  0  0  0  0  0  0  0  0  0  0  0
    0.0000    0.0000    0.0000 N   0  0  0  0  0  0  0  0  0  0  0  0
    0.0000    0.0000    0.0000 C   0  0  0  0  0  0  0  0  0  0  0  0
    0.0000    0.0000    0.0000 C   0  0  0  0  0  0  0  0  0  0  0  0
    0.0000    0.0000    0.0000 C   0  0  0  0  0  0  0  0  0  0  0  0
    0.0000    0.0000    0.0000 C   0  0  0  0  0  0  0  0  0  0  0  0
    0.0000    0.0000    0.0000 N   0  0  0  0  0  0  0  0  0  0  0  0
    0.0000    0.0000    0.0000 C   0  0  0  0  0  0  0  0  0  0  0  0
    0.0000    0.0000    0.0000 C   0  0  0  0  0  0  0  0  0  0  0  0
    0.0000    0.0000    0.0000 N   0  0  0  0  0  0  0  0  0  0  0  0
    0.0000    0.0000    0.0000 C   0  0  0  0  0  0  0  0  0  0  0  0
    0.0000    0.0000    0.0000 C   0  0  0  0  0  0  0  0  0  0  0  0
    0.0000    0.0000    0.0000 C   0  0  0  0  0  0  0  0  0  0  0  0
    0.0000    0.0000    0.0000 C   0  0  0  0  0  0  0  0  0  0  0  0
    0.0000    0.0000    0.0000 C   0  0  0  0  0  0  0  0  0  0  0  0
    0.0000    0.0000    0.0000 N   0  0  0  0  0  0  0  0  0  0  0  0
    0.0000    0.0000    0.0000 C   0  0  0  0  0  0  0  0  0  0  0  0
    0.0000    0.0000    0.0000 N   0  0  0  0  0  0  0  0  0  0  0  0
    0.0000    0.0000    0.0000 C   0  0  0  0  0  0  0  0  0  0  0  0
    0.0000    0.0000    0.0000 C   0  0  0  0  0  0  0  0  0  0  0  0
    0.0000    0.0000    0.0000 C   0  0  0  0  0  0  0  0  0  0  0  0
    0.0000    0.0000    0.0000 C   0  0  0  0  0  0  0  0  0  0  0  0
    0.0000    0.0000    0.0000 C   0  0  0  0  0  0  0  0  0  0  0  0
    0.0000    0.0000    0.0000 F   0  0  0  0  0  0  0  0  0  0  0  0
    0.0000    0.0000    0.0000 F   0  0  0  0  0  0  0  0  0  0  0  0
    0.0000    0.0000    0.0000 F   0  0  0  0  0  0  0  0  0  0  0  0
  1  2  1  0
  2  3  1  0
  2  4  1  0
  4  5  1  0
  5  6  2  0
  6  7  1  0
  7  8  2  0
  8  9  1  0
  9 10  2  0
 10 11  1  0
 11 12  2  0
 12 13  1  0
 11 14  1  0
 14 15  2  0
 14 16  1  0
 16 17  1  0
 17 18  1  0
 18 19  1  0
 19 20  1  0
 20 21  1  0
 21 22  1  0
 22 23  1  0
 23 24  1  0
 24 25  1  0
 25 26  1  0
 24 27  1  0
 27 28  2  0
 28 29  1  0
 29 30  2  0
 30 31  1  0
 31 32  2  0
 31 33  1  0
 33 34  1  0
 33 35  1  0
 33 36  1  0
 29 37  1  0
 37 38  1  0
 37 39  1  0
 37 40  1  0
 13  5  1  0
 13  9  1  0
 26 21  1  0
 32 27  1  0
M  END
>  <pIC50>  (441) 
6.55

>  <ChEMBL_ID>  (441) 
CHEMBL3323114

>  <document_journal>  (441) 
J. Med. Chem.

>  <bao_endpoint>  (441) 
BAO_0000190

>  <potential_duplicate>  (441) 
False

>  <uo_units>  (441) 
UO_0000065

>  <canonical_smiles>  (441) 
CN(C)Cc1cccc2nc(cn12)C(=O)NCCCCN3CCN(CC3)c4cc(nc(n4)C(C)(C)C)C(F)(F)F

>  <parent_molecule_chembl_id>  (441) 
CHEMBL3323114

>  <assay_type>  (441) 
B

>  <src_id>  (441) 
1

>  <ligand_efficiency>  (441) 
{u'le': u'0.22', u'bei': u'11.68', u'sei': u'8', u'lle': u'2.01'}

>  <standard_flag>  (441) 
True

>  <molecule_chembl_id>  (441) 
CHEMBL3323114

>  <target_organism>  (441) 
Homo sapiens

>  <standard_units>  (441) 
nM

>  <record_id>  (441) 
2266000

>  <document_chembl_id>  (441) 
CHEMBL3351252

>  <bao_format>  (441) 
BAO_0000219

>  <data_validity_description>  (441) 
None

>  <activity_id>  (441) 
14996280

>  <standard_type>  (441) 
IC50

>  <target_chembl_id>  (441) 
CHEMBL217

>  <data_validity_comment>  (441) 
None

>  <published_value>  (441) 
281

>  <document_year>  (441) 
2014

>  <target_pref_name>  (441) 
Dopamine D2 receptor

>  <assay_chembl_id>  (441) 
CHEMBL3372144

>  <standard_relation>  (441) 
=

>  <assay_description>  (441) 
Antagonist activity against human D2LR expressed in CHOK1 cells assessed as inhibition of pergolide-induced beta-arrestin translocation by beta-galactosidase based beta-arrestin recruitment assay

>  <published_relation>  (441) 
=

>  <standard_value>  (441) 
281

>  <qudt_units>  (441) 
http://www.openphacts.org/units/Nanomolar

>  <target_tax_id>  (441) 
9606

>  <bao_label>  (441) 
cell-based format

>  <published_units>  (441) 
nM

>  <pchembl_value>  (441) 
6.55

>  <published_type>  (441) 
IC50

>  <activity_comment>  (441) 
None

$$$$

     RDKit          

 24 27  0  0  0  0  0  0  0  0999 V2000
    0.0000    0.0000    0.0000 C   0  0  0  0  0  0  0  0  0  0  0  0
    0.0000    0.0000    0.0000 C   0  0  0  0  0  0  0  0  0  0  0  0
    0.0000    0.0000    0.0000 C   0  0  0  0  0  0  0  0  0  0  0  0
    0.0000    0.0000    0.0000 C   0  0  0  0  0  0  0  0  0  0  0  0
    0.0000    0.0000    0.0000 C   0  0  0  0  0  0  0  0  0  0  0  0
    0.0000    0.0000    0.0000 C   0  0  0  0  0  0  0  0  0  0  0  0
    0.0000    0.0000    0.0000 C   0  0  0  0  0  0  0  0  0  0  0  0
    0.0000    0.0000    0.0000 C   0  0  0  0  0  0  0  0  0  0  0  0
    0.0000    0.0000    0.0000 N   0  0  0  0  0  0  0  0  0  0  0  0
    0.0000    0.0000    0.0000 C   0  0  0  0  0  0  0  0  0  0  0  0
    0.0000    0.0000    0.0000 C   0  0  0  0  0  0  0  0  0  0  0  0
    0.0000    0.0000    0.0000 C   0  0  0  0  0  0  0  0  0  0  0  0
    0.0000    0.0000    0.0000 C   0  0  0  0  0  0  0  0  0  0  0  0
    0.0000    0.0000    0.0000 C   0  0  0  0  0  0  0  0  0  0  0  0
    0.0000    0.0000    0.0000 O   0  0  0  0  0  0  0  0  0  0  0  0
    0.0000    0.0000    0.0000 C   0  0  0  0  0  0  0  0  0  0  0  0
    0.0000    0.0000    0.0000 C   0  0  0  0  0  0  0  0  0  0  0  0
    0.0000    0.0000    0.0000 O   0  0  0  0  0  0  0  0  0  0  0  0
    0.0000    0.0000    0.0000 C   0  0  0  0  0  0  0  0  0  0  0  0
    0.0000    0.0000    0.0000 C   0  0  0  0  0  0  0  0  0  0  0  0
    0.0000    0.0000    0.0000 C   0  0  0  0  0  0  0  0  0  0  0  0
    0.0000    0.0000    0.0000 C   0  0  0  0  0  0  0  0  0  0  0  0
    0.0000    0.0000    0.0000 C   0  0  0  0  0  0  0  0  0  0  0  0
    0.0000    0.0000    0.0000 S   0  0  0  0  0  0  0  0  0  0  0  0
  1  2  1  0
  2  3  1  0
  3  4  1  0
  4  5  1  0
  5  6  2  0
  6  7  1  0
  7  8  1  0
  8  9  1  0
  9 10  1  0
 10 11  1  0
 11 12  1  0
 12 13  2  0
 13 14  1  0
 14 15  1  0
 15 16  1  0
 14 17  2  0
 17 18  1  0
 17 19  1  0
 19 20  2  0
 20 21  1  0
 21 22  1  0
 22 23  1  0
 23 24  1  0
 24  5  1  0
 23  7  2  0
 21  9  1  0
 20 12  1  0
M  END
>  <pIC50>  (442) 
6.04

>  <ChEMBL_ID>  (442) 
CHEMBL3344458

>  <document_journal>  (442) 
Bioorg. Med. Chem.

>  <bao_endpoint>  (442) 
BAO_0000190

>  <potential_duplicate>  (442) 
False

>  <uo_units>  (442) 
UO_0000065

>  <canonical_smiles>  (442) 
CCCCc1cc2CN3CCc4cc(OC)c(O)cc4[C@@H]3Cc2s1

>  <parent_molecule_chembl_id>  (442) 
CHEMBL3344458

>  <assay_type>  (442) 
F

>  <src_id>  (442) 
1

>  <ligand_efficiency>  (442) 
None

>  <standard_flag>  (442) 
True

>  <molecule_chembl_id>  (442) 
CHEMBL3344458

>  <target_organism>  (442) 
Homo sapiens

>  <standard_units>  (442) 
nM

>  <record_id>  (442) 
2243497

>  <document_chembl_id>  (442) 
CHEMBL3351714

>  <bao_format>  (442) 
BAO_0000019

>  <data_validity_description>  (442) 
None

>  <activity_id>  (442) 
15078471

>  <standard_type>  (442) 
IC50

>  <target_chembl_id>  (442) 
CHEMBL217

>  <data_validity_comment>  (442) 
None

>  <published_value>  (442) 
0.91

>  <document_year>  (442) 
2014

>  <target_pref_name>  (442) 
Dopamine D2 receptor

>  <assay_chembl_id>  (442) 
CHEMBL3387745

>  <standard_relation>  (442) 
=

>  <assay_description>  (442) 
Antagonist activity at D2 receptor (unknown origin) after 40 mins by [35S]GTP-gammaS binding assay in presence of quinpirole

>  <published_relation>  (442) 
=

>  <standard_value>  (442) 
910

>  <qudt_units>  (442) 
http://www.openphacts.org/units/Nanomolar

>  <target_tax_id>  (442) 
9606

>  <bao_label>  (442) 
assay format

>  <published_units>  (442) 
uM

>  <pchembl_value>  (442) 
6.04

>  <published_type>  (442) 
IC50

>  <activity_comment>  (442) 
None

$$$$

     RDKit          

 24 27  0  0  0  0  0  0  0  0999 V2000
    0.0000    0.0000    0.0000 C   0  0  0  0  0  0  0  0  0  0  0  0
    0.0000    0.0000    0.0000 O   0  0  0  0  0  0  0  0  0  0  0  0
    0.0000    0.0000    0.0000 C   0  0  0  0  0  0  0  0  0  0  0  0
    0.0000    0.0000    0.0000 C   0  0  0  0  0  0  0  0  0  0  0  0
    0.0000    0.0000    0.0000 C   0  0  0  0  0  0  0  0  0  0  0  0
    0.0000    0.0000    0.0000 C   0  0  0  0  0  0  0  0  0  0  0  0
    0.0000    0.0000    0.0000 C   0  0  0  0  0  0  0  0  0  0  0  0
    0.0000    0.0000    0.0000 N   0  0  0  0  0  0  0  0  0  0  0  0
    0.0000    0.0000    0.0000 C   0  0  0  0  0  0  0  0  0  0  0  0
    0.0000    0.0000    0.0000 C   0  0  0  0  0  0  0  0  0  0  0  0
    0.0000    0.0000    0.0000 C   0  0  0  0  0  0  0  0  0  0  0  0
    0.0000    0.0000    0.0000 C   0  0  0  0  0  0  0  0  0  0  0  0
    0.0000    0.0000    0.0000 C   0  0  0  0  0  0  0  0  0  0  0  0
    0.0000    0.0000    0.0000 C   0  0  0  0  0  0  0  0  0  0  0  0
    0.0000    0.0000    0.0000 C   0  0  0  0  0  0  0  0  0  0  0  0
    0.0000    0.0000    0.0000 C   0  0  0  0  0  0  0  0  0  0  0  0
    0.0000    0.0000    0.0000 S   0  0  0  0  0  0  0  0  0  0  0  0
    0.0000    0.0000    0.0000 C   0  0  0  0  0  0  0  0  0  0  0  0
    0.0000    0.0000    0.0000 C   0  0  0  0  0  0  0  0  0  0  0  0
    0.0000    0.0000    0.0000 C   0  0  0  0  0  0  0  0  0  0  0  0
    0.0000    0.0000    0.0000 C   0  0  0  0  0  0  0  0  0  0  0  0
    0.0000    0.0000    0.0000 C   0  0  0  0  0  0  0  0  0  0  0  0
    0.0000    0.0000    0.0000 C   0  0  0  0  0  0  0  0  0  0  0  0
    0.0000    0.0000    0.0000 O   0  0  0  0  0  0  0  0  0  0  0  0
  1  2  1  0
  2  3  1  0
  3  4  2  0
  4  5  1  0
  5  6  1  0
  6  7  1  0
  7  8  1  0
  8  9  1  0
  9 10  1  0
 10 11  1  0
 11 12  2  0
 12 13  1  0
 13 14  1  0
 14 15  1  0
 14 16  1  0
 12 17  1  0
 17 18  1  0
 18 19  1  0
 19 20  1  0
 20 21  1  0
 21 22  1  0
 22 23  2  0
 23 24  1  0
 23  3  1  0
 21  5  2  0
 20  8  1  0
 18 10  2  0
M  END
>  <pIC50>  (443) 
6.8

>  <ChEMBL_ID>  (443) 
CHEMBL3344459

>  <document_journal>  (443) 
Bioorg. Med. Chem.

>  <bao_endpoint>  (443) 
BAO_0000190

>  <potential_duplicate>  (443) 
False

>  <uo_units>  (443) 
UO_0000065

>  <canonical_smiles>  (443) 
COc1cc2CCN3Cc4cc(CC(C)C)sc4C[C@H]3c2cc1O

>  <parent_molecule_chembl_id>  (443) 
CHEMBL3344459

>  <assay_type>  (443) 
F

>  <src_id>  (443) 
1

>  <ligand_efficiency>  (443) 
None

>  <standard_flag>  (443) 
True

>  <molecule_chembl_id>  (443) 
CHEMBL3344459

>  <target_organism>  (443) 
Homo sapiens

>  <standard_units>  (443) 
nM

>  <record_id>  (443) 
2243498

>  <document_chembl_id>  (443) 
CHEMBL3351714

>  <bao_format>  (443) 
BAO_0000019

>  <data_validity_description>  (443) 
None

>  <activity_id>  (443) 
15078472

>  <standard_type>  (443) 
IC50

>  <target_chembl_id>  (443) 
CHEMBL217

>  <data_validity_comment>  (443) 
None

>  <published_value>  (443) 
0.16

>  <document_year>  (443) 
2014

>  <target_pref_name>  (443) 
Dopamine D2 receptor

>  <assay_chembl_id>  (443) 
CHEMBL3387745

>  <standard_relation>  (443) 
=

>  <assay_description>  (443) 
Antagonist activity at D2 receptor (unknown origin) after 40 mins by [35S]GTP-gammaS binding assay in presence of quinpirole

>  <published_relation>  (443) 
=

>  <standard_value>  (443) 
160

>  <qudt_units>  (443) 
http://www.openphacts.org/units/Nanomolar

>  <target_tax_id>  (443) 
9606

>  <bao_label>  (443) 
assay format

>  <published_units>  (443) 
uM

>  <pchembl_value>  (443) 
6.8

>  <published_type>  (443) 
IC50

>  <activity_comment>  (443) 
None

$$$$

     RDKit          

 23 25  0  0  0  0  0  0  0  0999 V2000
    0.0000    0.0000    0.0000 C   0  0  0  0  0  0  0  0  0  0  0  0
    0.0000    0.0000    0.0000 O   0  0  0  0  0  0  0  0  0  0  0  0
    0.0000    0.0000    0.0000 C   0  0  0  0  0  0  0  0  0  0  0  0
    0.0000    0.0000    0.0000 C   0  0  0  0  0  0  0  0  0  0  0  0
    0.0000    0.0000    0.0000 C   0  0  0  0  0  0  0  0  0  0  0  0
    0.0000    0.0000    0.0000 C   0  0  0  0  0  0  0  0  0  0  0  0
    0.0000    0.0000    0.0000 C   0  0  0  0  0  0  0  0  0  0  0  0
    0.0000    0.0000    0.0000 N   0  0  0  0  0  0  0  0  0  0  0  0
    0.0000    0.0000    0.0000 C   0  0  0  0  0  0  0  0  0  0  0  0
    0.0000    0.0000    0.0000 C   0  0  0  0  0  0  0  0  0  0  0  0
    0.0000    0.0000    0.0000 O   0  0  0  0  0  0  0  0  0  0  0  0
    0.0000    0.0000    0.0000 C   0  0  0  0  0  0  0  0  0  0  0  0
    0.0000    0.0000    0.0000 C   0  0  0  0  0  0  0  0  0  0  0  0
    0.0000    0.0000    0.0000 C   0  0  0  0  0  0  0  0  0  0  0  0
    0.0000    0.0000    0.0000 C   0  0  0  0  0  0  0  0  0  0  0  0
    0.0000    0.0000    0.0000 C   0  0  0  0  0  0  0  0  0  0  0  0
    0.0000    0.0000    0.0000 C   0  0  0  0  0  0  0  0  0  0  0  0
    0.0000    0.0000    0.0000 C   0  0  0  0  0  0  0  0  0  0  0  0
    0.0000    0.0000    0.0000 C   0  0  0  0  0  0  0  0  0  0  0  0
    0.0000    0.0000    0.0000 C   0  0  0  0  0  0  0  0  0  0  0  0
    0.0000    0.0000    0.0000 C   0  0  0  0  0  0  0  0  0  0  0  0
    0.0000    0.0000    0.0000 C   0  0  0  0  0  0  0  0  0  0  0  0
    0.0000    0.0000    0.0000 C   0  0  0  0  0  0  0  0  0  0  0  0
  1  2  1  0
  2  3  1  0
  3  4  2  0
  4  5  1  0
  5  6  2  0
  6  7  1  0
  7  8  1  0
  8  9  1  0
  9 10  1  0
 10 11  1  0
 11 12  1  0
 12 13  1  0
 13 14  1  0
 14 15  1  0
 15 16  2  0
 16 17  1  0
 17 18  2  0
 18 19  1  0
 19 20  2  0
 12 21  1  0
  6 22  1  0
 22 23  2  0
 23  3  1  0
 21  8  1  0
 20 15  1  0
M  END
>  <pIC50>  (444) 
4.78

>  <ChEMBL_ID>  (444) 
CHEMBL3335539

>  <document_journal>  (444) 
ACS Med. Chem. Lett.

>  <bao_endpoint>  (444) 
BAO_0000190

>  <potential_duplicate>  (444) 
False

>  <uo_units>  (444) 
UO_0000065

>  <canonical_smiles>  (444) 
COc1ccc(CN2CCOC(CCc3ccccc3)C2)cc1

>  <parent_molecule_chembl_id>  (444) 
CHEMBL3335539

>  <assay_type>  (444) 
B

>  <src_id>  (444) 
1

>  <ligand_efficiency>  (444) 
{u'le': u'0.28', u'bei': u'15.36', u'sei': u'22.04', u'lle': u'0.82'}

>  <standard_flag>  (444) 
True

>  <molecule_chembl_id>  (444) 
CHEMBL3335539

>  <target_organism>  (444) 
Homo sapiens

>  <standard_units>  (444) 
nM

>  <record_id>  (444) 
2251543

>  <document_chembl_id>  (444) 
CHEMBL3352711

>  <bao_format>  (444) 
BAO_0000357

>  <data_validity_description>  (444) 
None

>  <activity_id>  (444) 
15119276

>  <standard_type>  (444) 
IC50

>  <target_chembl_id>  (444) 
CHEMBL217

>  <data_validity_comment>  (444) 
None

>  <published_value>  (444) 
16.5

>  <document_year>  (444) 
2014

>  <target_pref_name>  (444) 
Dopamine D2 receptor

>  <assay_chembl_id>  (444) 
CHEMBL3383656

>  <standard_relation>  (444) 
=

>  <assay_description>  (444) 
Inhibition of human dopamine D2L receptor

>  <published_relation>  (444) 
=

>  <standard_value>  (444) 
16500

>  <qudt_units>  (444) 
http://www.openphacts.org/units/Nanomolar

>  <target_tax_id>  (444) 
9606

>  <bao_label>  (444) 
single protein format

>  <published_units>  (444) 
uM

>  <pchembl_value>  (444) 
4.78

>  <published_type>  (444) 
IC50

>  <activity_comment>  (444) 
None

$$$$

     RDKit          

 22 24  0  0  0  0  0  0  0  0999 V2000
    0.0000    0.0000    0.0000 O   0  0  0  0  0  0  0  0  0  0  0  0
    0.0000    0.0000    0.0000 C   0  0  0  0  0  0  0  0  0  0  0  0
    0.0000    0.0000    0.0000 C   0  0  0  0  0  0  0  0  0  0  0  0
    0.0000    0.0000    0.0000 C   0  0  0  0  0  0  0  0  0  0  0  0
    0.0000    0.0000    0.0000 C   0  0  0  0  0  0  0  0  0  0  0  0
    0.0000    0.0000    0.0000 C   0  0  0  0  0  0  0  0  0  0  0  0
    0.0000    0.0000    0.0000 N   0  0  0  0  0  0  0  0  0  0  0  0
    0.0000    0.0000    0.0000 C   0  0  0  0  0  0  0  0  0  0  0  0
    0.0000    0.0000    0.0000 C   0  0  0  0  0  0  0  0  0  0  0  0
    0.0000    0.0000    0.0000 O   0  0  0  0  0  0  0  0  0  0  0  0
    0.0000    0.0000    0.0000 C   0  0  0  0  0  0  0  0  0  0  0  0
    0.0000    0.0000    0.0000 C   0  0  0  0  0  0  0  0  0  0  0  0
    0.0000    0.0000    0.0000 C   0  0  0  0  0  0  0  0  0  0  0  0
    0.0000    0.0000    0.0000 C   0  0  0  0  0  0  0  0  0  0  0  0
    0.0000    0.0000    0.0000 C   0  0  0  0  0  0  0  0  0  0  0  0
    0.0000    0.0000    0.0000 C   0  0  0  0  0  0  0  0  0  0  0  0
    0.0000    0.0000    0.0000 C   0  0  0  0  0  0  0  0  0  0  0  0
    0.0000    0.0000    0.0000 C   0  0  0  0  0  0  0  0  0  0  0  0
    0.0000    0.0000    0.0000 C   0  0  0  0  0  0  0  0  0  0  0  0
    0.0000    0.0000    0.0000 C   0  0  0  0  0  0  0  0  0  0  0  0
    0.0000    0.0000    0.0000 C   0  0  0  0  0  0  0  0  0  0  0  0
    0.0000    0.0000    0.0000 C   0  0  0  0  0  0  0  0  0  0  0  0
  1  2  1  0
  2  3  2  0
  3  4  1  0
  4  5  2  0
  5  6  1  0
  6  7  1  0
  7  8  1  0
  8  9  1  0
  9 10  1  0
 10 11  1  0
 11 12  1  0
 12 13  1  0
 13 14  1  0
 14 15  2  0
 15 16  1  0
 16 17  2  0
 17 18  1  0
 18 19  2  0
 11 20  1  0
  5 21  1  0
 21 22  2  0
 22  2  1  0
 20  7  1  0
 19 14  1  0
M  END
>  <pIC50>  (445) 
4.78

>  <ChEMBL_ID>  (445) 
CHEMBL3335555

>  <document_journal>  (445) 
ACS Med. Chem. Lett.

>  <bao_endpoint>  (445) 
BAO_0000190

>  <potential_duplicate>  (445) 
False

>  <uo_units>  (445) 
UO_0000065

>  <canonical_smiles>  (445) 
Oc1ccc(CN2CCO[C@H](CCc3ccccc3)C2)cc1

>  <parent_molecule_chembl_id>  (445) 
CHEMBL3335555

>  <assay_type>  (445) 
B

>  <src_id>  (445) 
1

>  <ligand_efficiency>  (445) 
{u'le': u'0.3', u'bei': u'16.08', u'sei': u'14.63', u'lle': u'1.04'}

>  <standard_flag>  (445) 
True

>  <molecule_chembl_id>  (445) 
CHEMBL3335555

>  <target_organism>  (445) 
Homo sapiens

>  <standard_units>  (445) 
nM

>  <record_id>  (445) 
2251559

>  <document_chembl_id>  (445) 
CHEMBL3352711

>  <bao_format>  (445) 
BAO_0000357

>  <data_validity_description>  (445) 
None

>  <activity_id>  (445) 
15119278

>  <standard_type>  (445) 
IC50

>  <target_chembl_id>  (445) 
CHEMBL217

>  <data_validity_comment>  (445) 
None

>  <published_value>  (445) 
16.5

>  <document_year>  (445) 
2014

>  <target_pref_name>  (445) 
Dopamine D2 receptor

>  <assay_chembl_id>  (445) 
CHEMBL3383656

>  <standard_relation>  (445) 
=

>  <assay_description>  (445) 
Inhibition of human dopamine D2L receptor

>  <published_relation>  (445) 
=

>  <standard_value>  (445) 
16500

>  <qudt_units>  (445) 
http://www.openphacts.org/units/Nanomolar

>  <target_tax_id>  (445) 
9606

>  <bao_label>  (445) 
single protein format

>  <published_units>  (445) 
uM

>  <pchembl_value>  (445) 
4.78

>  <published_type>  (445) 
IC50

>  <activity_comment>  (445) 
None

$$$$

     RDKit          

 31 34  0  0  0  0  0  0  0  0999 V2000
    0.0000    0.0000    0.0000 O   0  0  0  0  0  0  0  0  0  0  0  0
    0.0000    0.0000    0.0000 C   0  0  0  0  0  0  0  0  0  0  0  0
    0.0000    0.0000    0.0000 C   0  0  0  0  0  0  0  0  0  0  0  0
    0.0000    0.0000    0.0000 C   0  0  0  0  0  0  0  0  0  0  0  0
    0.0000    0.0000    0.0000 N   0  0  0  0  0  0  0  0  0  0  0  0
    0.0000    0.0000    0.0000 C   0  0  0  0  0  0  0  0  0  0  0  0
    0.0000    0.0000    0.0000 O   0  0  0  0  0  0  0  0  0  0  0  0
    0.0000    0.0000    0.0000 C   0  0  0  0  0  0  0  0  0  0  0  0
    0.0000    0.0000    0.0000 C   0  0  0  0  0  0  0  0  0  0  0  0
    0.0000    0.0000    0.0000 C   0  0  0  0  0  0  0  0  0  0  0  0
    0.0000    0.0000    0.0000 C   0  0  0  0  0  0  0  0  0  0  0  0
    0.0000    0.0000    0.0000 C   0  0  0  0  0  0  0  0  0  0  0  0
    0.0000    0.0000    0.0000 C   0  0  0  0  0  0  0  0  0  0  0  0
    0.0000    0.0000    0.0000 C   0  0  0  0  0  0  0  0  0  0  0  0
    0.0000    0.0000    0.0000 C   0  0  0  0  0  0  0  0  0  0  0  0
    0.0000    0.0000    0.0000 N   0  0  0  0  0  0  0  0  0  0  0  0
    0.0000    0.0000    0.0000 C   0  0  0  0  0  0  0  0  0  0  0  0
    0.0000    0.0000    0.0000 N   0  0  0  0  0  0  0  0  0  0  0  0
    0.0000    0.0000    0.0000 C   0  0  0  0  0  0  0  0  0  0  0  0
    0.0000    0.0000    0.0000 C   0  0  0  0  0  0  0  0  0  0  0  0
    0.0000    0.0000    0.0000 N   0  0  0  0  0  0  0  0  0  0  0  0
    0.0000    0.0000    0.0000 C   0  0  0  0  0  0  0  0  0  0  0  0
    0.0000    0.0000    0.0000 C   0  0  0  0  0  0  0  0  0  0  0  0
    0.0000    0.0000    0.0000 C   0  0  0  0  0  0  0  0  0  0  0  0
    0.0000    0.0000    0.0000 C   0  0  0  0  0  0  0  0  0  0  0  0
    0.0000    0.0000    0.0000 C   0  0  0  0  0  0  0  0  0  0  0  0
    0.0000    0.0000    0.0000 C   0  0  0  0  0  0  0  0  0  0  0  0
    0.0000    0.0000    0.0000 C   0  0  0  0  0  0  0  0  0  0  0  0
    0.0000    0.0000    0.0000 Cl  0  0  0  0  0  0  0  0  0  0  0  0
    0.0000    0.0000    0.0000 C   0  0  0  0  0  0  0  0  0  0  0  0
    0.0000    0.0000    0.0000 Cl  0  0  0  0  0  0  0  0  0  0  0  0
  1  2  1  0
  2  3  1  0
  3  4  1  0
  4  5  1  0
  5  6  1  0
  6  7  2  0
  6  8  1  0
  8  9  2  0
  9 10  1  0
 10 11  2  0
 11 12  1  0
 12 13  2  0
 13 14  1  0
 14 15  2  0
 15 16  1  0
  2 17  1  0
 17 18  1  0
 18 19  1  0
 19 20  1  0
 20 21  1  0
 21 22  1  0
 22 23  1  0
 21 24  1  0
 24 25  2  0
 25 26  1  0
 26 27  2  0
 27 28  1  0
 28 29  1  0
 28 30  2  0
 30 31  1  0
 16  8  1  0
 15 10  1  0
 23 18  1  0
 30 24  1  0
M  END
>  <pIC50>  (446) 
5.36

>  <ChEMBL_ID>  (446) 
CHEMBL1627305

>  <document_journal>  (446) 
J. Med. Chem.

>  <bao_endpoint>  (446) 
BAO_0000190

>  <potential_duplicate>  (446) 
False

>  <uo_units>  (446) 
UO_0000065

>  <canonical_smiles>  (446) 
OC(CCNC(=O)c1cc2ccccc2[nH]1)CN3CCN(CC3)c4cccc(Cl)c4Cl

>  <parent_molecule_chembl_id>  (446) 
CHEMBL1627305

>  <assay_type>  (446) 
B

>  <src_id>  (446) 
1

>  <ligand_efficiency>  (446) 
{u'le': u'0.24', u'bei': u'11.61', u'sei': u'7.48', u'lle': u'1.09'}

>  <standard_flag>  (446) 
True

>  <molecule_chembl_id>  (446) 
CHEMBL1627305

>  <target_organism>  (446) 
Homo sapiens

>  <standard_units>  (446) 
nM

>  <record_id>  (446) 
2491002

>  <document_chembl_id>  (446) 
CHEMBL3596172

>  <bao_format>  (446) 
BAO_0000219

>  <data_validity_description>  (446) 
None

>  <activity_id>  (446) 
15657946

>  <standard_type>  (446) 
IC50

>  <target_chembl_id>  (446) 
CHEMBL217

>  <data_validity_comment>  (446) 
None

>  <published_value>  (446) 
4400

>  <document_year>  (446) 
2015

>  <target_pref_name>  (446) 
Dopamine D2 receptor

>  <assay_chembl_id>  (446) 
CHEMBL3599945

>  <standard_relation>  (446) 
=

>  <assay_description>  (446) 
Antagonist activity at human dopamine D2 receptor expressed in CHO cells assessed as inhibition of quinpirole-stimulated mitogenesis

>  <published_relation>  (446) 
=

>  <standard_value>  (446) 
4400

>  <qudt_units>  (446) 
http://www.openphacts.org/units/Nanomolar

>  <target_tax_id>  (446) 
9606

>  <bao_label>  (446) 
cell-based format

>  <published_units>  (446) 
nM

>  <pchembl_value>  (446) 
5.36

>  <published_type>  (446) 
IC50

>  <activity_comment>  (446) 
None

$$$$

     RDKit          

 32 36  0  0  0  0  0  0  0  0999 V2000
    0.0000    0.0000    0.0000 O   0  0  0  0  0  0  0  0  0  0  0  0
    0.0000    0.0000    0.0000 C   0  0  0  0  0  0  0  0  0  0  0  0
    0.0000    0.0000    0.0000 N   0  0  0  0  0  0  0  0  0  0  0  0
    0.0000    0.0000    0.0000 C   0  0  0  0  0  0  0  0  0  0  0  0
    0.0000    0.0000    0.0000 C   0  0  0  0  0  0  0  0  0  0  0  0
    0.0000    0.0000    0.0000 C   0  0  0  0  0  0  0  0  0  0  0  0
    0.0000    0.0000    0.0000 C   0  0  0  0  0  0  0  0  0  0  0  0
    0.0000    0.0000    0.0000 N   0  0  0  0  0  0  0  0  0  0  0  0
    0.0000    0.0000    0.0000 C   0  0  0  0  0  0  0  0  0  0  0  0
    0.0000    0.0000    0.0000 C   0  0  0  0  0  0  0  0  0  0  0  0
    0.0000    0.0000    0.0000 N   0  0  0  0  0  0  0  0  0  0  0  0
    0.0000    0.0000    0.0000 C   0  0  0  0  0  0  0  0  0  0  0  0
    0.0000    0.0000    0.0000 C   0  0  0  0  0  0  0  0  0  0  0  0
    0.0000    0.0000    0.0000 C   0  0  0  0  0  0  0  0  0  0  0  0
    0.0000    0.0000    0.0000 C   0  0  0  0  0  0  0  0  0  0  0  0
    0.0000    0.0000    0.0000 C   0  0  0  0  0  0  0  0  0  0  0  0
    0.0000    0.0000    0.0000 C   0  0  0  0  0  0  0  0  0  0  0  0
    0.0000    0.0000    0.0000 C   0  0  0  0  0  0  0  0  0  0  0  0
    0.0000    0.0000    0.0000 C   0  0  0  0  0  0  0  0  0  0  0  0
    0.0000    0.0000    0.0000 C   0  0  0  0  0  0  0  0  0  0  0  0
    0.0000    0.0000    0.0000 C   0  0  0  0  0  0  0  0  0  0  0  0
    0.0000    0.0000    0.0000 C   0  0  0  0  0  0  0  0  0  0  0  0
    0.0000    0.0000    0.0000 C   0  0  0  0  0  0  0  0  0  0  0  0
    0.0000    0.0000    0.0000 C   0  0  0  0  0  0  0  0  0  0  0  0
    0.0000    0.0000    0.0000 C   0  0  0  0  0  0  0  0  0  0  0  0
    0.0000    0.0000    0.0000 C   0  0  0  0  0  0  0  0  0  0  0  0
    0.0000    0.0000    0.0000 C   0  0  0  0  0  0  0  0  0  0  0  0
    0.0000    0.0000    0.0000 C   0  0  0  0  0  0  0  0  0  0  0  0
    0.0000    0.0000    0.0000 C   0  0  0  0  0  0  0  0  0  0  0  0
    0.0000    0.0000    0.0000 C   0  0  0  0  0  0  0  0  0  0  0  0
    0.0000    0.0000    0.0000 C   0  0  0  0  0  0  0  0  0  0  0  0
    0.0000    0.0000    0.0000 N   0  0  0  0  0  0  0  0  0  0  0  0
  1  2  2  0
  2  3  1  0
  3  4  1  0
  4  5  1  0
  5  6  1  0
  6  7  1  0
  7  8  1  0
  8  9  1  0
  9 10  1  0
 10 11  1  0
 11 12  1  0
 12 13  1  0
 11 14  1  0
 14 15  2  0
 15 16  1  0
 16 17  2  0
 17 18  1  0
 18 19  2  0
 19 20  1  0
 20 21  2  0
 21 22  1  0
 22 23  2  0
  2 24  1  0
 24 25  2  0
 25 26  1  0
 26 27  2  0
 27 28  1  0
 28 29  2  0
 29 30  1  0
 30 31  2  0
 31 32  1  0
 13  8  1  0
 23 14  1  0
 23 18  1  0
 32 24  1  0
 31 26  1  0
M  END
>  <pIC50>  (447) 
7.06

>  <ChEMBL_ID>  (447) 
CHEMBL3597643

>  <document_journal>  (447) 
J. Med. Chem.

>  <bao_endpoint>  (447) 
BAO_0000190

>  <potential_duplicate>  (447) 
False

>  <uo_units>  (447) 
UO_0000065

>  <canonical_smiles>  (447) 
O=C(NCCCCN1CCN(CC1)c2cccc3ccccc23)c4cc5ccccc5[nH]4

>  <parent_molecule_chembl_id>  (447) 
CHEMBL3597643

>  <assay_type>  (447) 
B

>  <src_id>  (447) 
1

>  <ligand_efficiency>  (447) 
{u'le': u'0.3', u'bei': u'16.55', u'sei': u'13.74', u'lle': u'2.12'}

>  <standard_flag>  (447) 
True

>  <molecule_chembl_id>  (447) 
CHEMBL3597643

>  <target_organism>  (447) 
Homo sapiens

>  <standard_units>  (447) 
nM

>  <record_id>  (447) 
2491005

>  <document_chembl_id>  (447) 
CHEMBL3596172

>  <bao_format>  (447) 
BAO_0000219

>  <data_validity_description>  (447) 
None

>  <activity_id>  (447) 
15657947

>  <standard_type>  (447) 
IC50

>  <target_chembl_id>  (447) 
CHEMBL217

>  <data_validity_comment>  (447) 
None

>  <published_value>  (447) 
87

>  <document_year>  (447) 
2015

>  <target_pref_name>  (447) 
Dopamine D2 receptor

>  <assay_chembl_id>  (447) 
CHEMBL3599945

>  <standard_relation>  (447) 
=

>  <assay_description>  (447) 
Antagonist activity at human dopamine D2 receptor expressed in CHO cells assessed as inhibition of quinpirole-stimulated mitogenesis

>  <published_relation>  (447) 
=

>  <standard_value>  (447) 
87

>  <qudt_units>  (447) 
http://www.openphacts.org/units/Nanomolar

>  <target_tax_id>  (447) 
9606

>  <bao_label>  (447) 
cell-based format

>  <published_units>  (447) 
nM

>  <pchembl_value>  (447) 
7.06

>  <published_type>  (447) 
IC50

>  <activity_comment>  (447) 
None

$$$$

     RDKit          

 31 34  0  0  0  0  0  0  0  0999 V2000
    0.0000    0.0000    0.0000 F   0  0  0  0  0  0  0  0  0  0  0  0
    0.0000    0.0000    0.0000 C   0  0  0  0  0  0  0  0  0  0  0  0
    0.0000    0.0000    0.0000 C   0  0  0  0  0  0  0  0  0  0  0  0
    0.0000    0.0000    0.0000 C   0  0  0  0  0  0  0  0  0  0  0  0
    0.0000    0.0000    0.0000 C   0  0  0  0  0  0  0  0  0  0  0  0
    0.0000    0.0000    0.0000 N   0  0  0  0  0  0  0  0  0  0  0  0
    0.0000    0.0000    0.0000 C   0  0  0  0  0  0  0  0  0  0  0  0
    0.0000    0.0000    0.0000 C   0  0  0  0  0  0  0  0  0  0  0  0
    0.0000    0.0000    0.0000 C   0  0  0  0  0  0  0  0  0  0  0  0
    0.0000    0.0000    0.0000 C   0  0  0  0  0  0  0  0  0  0  0  0
    0.0000    0.0000    0.0000 C   0  0  0  0  0  0  0  0  0  0  0  0
    0.0000    0.0000    0.0000 O   0  0  0  0  0  0  0  0  0  0  0  0
    0.0000    0.0000    0.0000 N   0  0  0  0  0  0  0  0  0  0  0  0
    0.0000    0.0000    0.0000 C   0  0  0  0  0  0  0  0  0  0  0  0
    0.0000    0.0000    0.0000 C   0  0  0  0  0  0  0  0  0  0  0  0
    0.0000    0.0000    0.0000 C   0  0  0  0  0  0  0  0  0  0  0  0
    0.0000    0.0000    0.0000 C   0  0  0  0  0  0  0  0  0  0  0  0
    0.0000    0.0000    0.0000 N   0  0  0  0  0  0  0  0  0  0  0  0
    0.0000    0.0000    0.0000 C   0  0  0  0  0  0  0  0  0  0  0  0
    0.0000    0.0000    0.0000 C   0  0  0  0  0  0  0  0  0  0  0  0
    0.0000    0.0000    0.0000 N   0  0  0  0  0  0  0  0  0  0  0  0
    0.0000    0.0000    0.0000 C   0  0  0  0  0  0  0  0  0  0  0  0
    0.0000    0.0000    0.0000 C   0  0  0  0  0  0  0  0  0  0  0  0
    0.0000    0.0000    0.0000 C   0  0  0  0  0  0  0  0  0  0  0  0
    0.0000    0.0000    0.0000 C   0  0  0  0  0  0  0  0  0  0  0  0
    0.0000    0.0000    0.0000 C   0  0  0  0  0  0  0  0  0  0  0  0
    0.0000    0.0000    0.0000 C   0  0  0  0  0  0  0  0  0  0  0  0
    0.0000    0.0000    0.0000 C   0  0  0  0  0  0  0  0  0  0  0  0
    0.0000    0.0000    0.0000 Cl  0  0  0  0  0  0  0  0  0  0  0  0
    0.0000    0.0000    0.0000 C   0  0  0  0  0  0  0  0  0  0  0  0
    0.0000    0.0000    0.0000 Cl  0  0  0  0  0  0  0  0  0  0  0  0
  1  2  1  0
  2  3  2  0
  3  4  1  0
  4  5  2  0
  5  6  1  0
  6  7  1  0
  7  8  2  0
  8  9  1  0
  9 10  2  0
  7 11  1  0
 11 12  2  0
 11 13  1  0
 13 14  1  0
 14 15  1  0
 15 16  1  0
 16 17  1  0
 17 18  1  0
 18 19  1  0
 19 20  1  0
 20 21  1  0
 21 22  1  0
 22 23  1  0
 21 24  1  0
 24 25  2  0
 25 26  1  0
 26 27  2  0
 27 28  1  0
 28 29  1  0
 28 30  2  0
 30 31  1  0
 10  2  1  0
  9  5  1  0
 23 18  1  0
 30 24  1  0
M  END
>  <pIC50>  (448) 
6.25

>  <ChEMBL_ID>  (448) 
CHEMBL68740

>  <document_journal>  (448) 
J. Med. Chem.

>  <bao_endpoint>  (448) 
BAO_0000190

>  <potential_duplicate>  (448) 
False

>  <uo_units>  (448) 
UO_0000065

>  <canonical_smiles>  (448) 
Fc1ccc2[nH]c(cc2c1)C(=O)NCCCCN3CCN(CC3)c4cccc(Cl)c4Cl

>  <parent_molecule_chembl_id>  (448) 
CHEMBL68740

>  <assay_type>  (448) 
B

>  <src_id>  (448) 
1

>  <ligand_efficiency>  (448) 
{u'le': u'0.28', u'bei': u'13.48', u'sei': u'12.16', u'lle': u'0.68'}

>  <standard_flag>  (448) 
True

>  <molecule_chembl_id>  (448) 
CHEMBL68740

>  <target_organism>  (448) 
Homo sapiens

>  <standard_units>  (448) 
nM

>  <record_id>  (448) 
2491009

>  <document_chembl_id>  (448) 
CHEMBL3596172

>  <bao_format>  (448) 
BAO_0000219

>  <data_validity_description>  (448) 
None

>  <activity_id>  (448) 
15657948

>  <standard_type>  (448) 
IC50

>  <target_chembl_id>  (448) 
CHEMBL217

>  <data_validity_comment>  (448) 
None

>  <published_value>  (448) 
564.4

>  <document_year>  (448) 
2015

>  <target_pref_name>  (448) 
Dopamine D2 receptor

>  <assay_chembl_id>  (448) 
CHEMBL3599945

>  <standard_relation>  (448) 
=

>  <assay_description>  (448) 
Antagonist activity at human dopamine D2 receptor expressed in CHO cells assessed as inhibition of quinpirole-stimulated mitogenesis

>  <published_relation>  (448) 
=

>  <standard_value>  (448) 
564.4

>  <qudt_units>  (448) 
http://www.openphacts.org/units/Nanomolar

>  <target_tax_id>  (448) 
9606

>  <bao_label>  (448) 
cell-based format

>  <published_units>  (448) 
nM

>  <pchembl_value>  (448) 
6.25

>  <published_type>  (448) 
IC50

>  <activity_comment>  (448) 
None

$$$$

     RDKit          

 33 37  0  0  0  0  0  0  0  0999 V2000
    0.0000    0.0000    0.0000 O   0  0  0  0  0  0  0  0  0  0  0  0
    0.0000    0.0000    0.0000 C   0  0  0  0  0  0  0  0  0  0  0  0
    0.0000    0.0000    0.0000 N   0  0  0  0  0  0  0  0  0  0  0  0
    0.0000    0.0000    0.0000 C   0  0  0  0  0  0  0  0  0  0  0  0
    0.0000    0.0000    0.0000 C   0  0  0  0  0  0  0  0  0  0  0  0
    0.0000    0.0000    0.0000 C   0  0  0  0  0  0  0  0  0  0  0  0
    0.0000    0.0000    0.0000 C   0  0  0  0  0  0  0  0  0  0  0  0
    0.0000    0.0000    0.0000 N   0  0  0  0  0  0  0  0  0  0  0  0
    0.0000    0.0000    0.0000 C   0  0  0  0  0  0  0  0  0  0  0  0
    0.0000    0.0000    0.0000 C   0  0  0  0  0  0  0  0  0  0  0  0
    0.0000    0.0000    0.0000 N   0  0  0  0  0  0  0  0  0  0  0  0
    0.0000    0.0000    0.0000 C   0  0  0  0  0  0  0  0  0  0  0  0
    0.0000    0.0000    0.0000 C   0  0  0  0  0  0  0  0  0  0  0  0
    0.0000    0.0000    0.0000 C   0  0  0  0  0  0  0  0  0  0  0  0
    0.0000    0.0000    0.0000 C   0  0  0  0  0  0  0  0  0  0  0  0
    0.0000    0.0000    0.0000 C   0  0  0  0  0  0  0  0  0  0  0  0
    0.0000    0.0000    0.0000 C   0  0  0  0  0  0  0  0  0  0  0  0
    0.0000    0.0000    0.0000 C   0  0  0  0  0  0  0  0  0  0  0  0
    0.0000    0.0000    0.0000 C   0  0  0  0  0  0  0  0  0  0  0  0
    0.0000    0.0000    0.0000 C   0  0  0  0  0  0  0  0  0  0  0  0
    0.0000    0.0000    0.0000 C   0  0  0  0  0  0  0  0  0  0  0  0
    0.0000    0.0000    0.0000 C   0  0  0  0  0  0  0  0  0  0  0  0
    0.0000    0.0000    0.0000 C   0  0  0  0  0  0  0  0  0  0  0  0
    0.0000    0.0000    0.0000 C   0  0  0  0  0  0  0  0  0  0  0  0
    0.0000    0.0000    0.0000 C   0  0  0  0  0  0  0  0  0  0  0  0
    0.0000    0.0000    0.0000 N   0  0  0  0  0  0  0  0  0  0  0  0
    0.0000    0.0000    0.0000 C   0  0  0  0  0  0  0  0  0  0  0  0
    0.0000    0.0000    0.0000 C   0  0  0  0  0  0  0  0  0  0  0  0
    0.0000    0.0000    0.0000 C   0  0  0  0  0  0  0  0  0  0  0  0
    0.0000    0.0000    0.0000 C   0  0  0  0  0  0  0  0  0  0  0  0
    0.0000    0.0000    0.0000 C   0  0  0  0  0  0  0  0  0  0  0  0
    0.0000    0.0000    0.0000 C   0  0  0  0  0  0  0  0  0  0  0  0
    0.0000    0.0000    0.0000 C   0  0  0  0  0  0  0  0  0  0  0  0
  1  2  2  0
  2  3  1  0
  3  4  1  0
  4  5  1  0
  5  6  1  0
  6  7  1  0
  7  8  1  0
  8  9  1  0
  9 10  1  0
 10 11  1  0
 11 12  1  0
 12 13  1  0
 11 14  1  0
 14 15  2  0
 15 16  1  0
 16 17  2  0
 17 18  1  0
 18 19  2  0
 19 20  1  0
 20 21  2  0
 21 22  1  0
 22 23  2  0
  2 24  1  0
 24 25  2  0
 25 26  1  0
 26 27  2  0
 27 28  1  0
 28 29  2  0
 29 30  1  0
 30 31  2  0
 31 32  1  0
 32 33  2  0
 13  8  1  0
 23 14  1  0
 23 18  1  0
 33 24  1  0
 32 27  1  0
M  END
>  <pIC50>  (449) 
7.54

>  <ChEMBL_ID>  (449) 
CHEMBL3597635

>  <document_journal>  (449) 
J. Med. Chem.

>  <bao_endpoint>  (449) 
BAO_0000190

>  <potential_duplicate>  (449) 
False

>  <uo_units>  (449) 
UO_0000065

>  <canonical_smiles>  (449) 
O=C(NCCCCN1CCN(CC1)c2cccc3ccccc23)c4cnc5ccccc5c4

>  <parent_molecule_chembl_id>  (449) 
CHEMBL3597635

>  <assay_type>  (449) 
B

>  <src_id>  (449) 
1

>  <ligand_efficiency>  (449) 
{u'le': u'0.31', u'bei': u'17.19', u'sei': u'15.55', u'lle': u'3'}

>  <standard_flag>  (449) 
True

>  <molecule_chembl_id>  (449) 
CHEMBL3597635

>  <target_organism>  (449) 
Homo sapiens

>  <standard_units>  (449) 
nM

>  <record_id>  (449) 
2490994

>  <document_chembl_id>  (449) 
CHEMBL3596172

>  <bao_format>  (449) 
BAO_0000219

>  <data_validity_description>  (449) 
None

>  <activity_id>  (449) 
15657950

>  <standard_type>  (449) 
IC50

>  <target_chembl_id>  (449) 
CHEMBL217

>  <data_validity_comment>  (449) 
None

>  <published_value>  (449) 
29

>  <document_year>  (449) 
2015

>  <target_pref_name>  (449) 
Dopamine D2 receptor

>  <assay_chembl_id>  (449) 
CHEMBL3599945

>  <standard_relation>  (449) 
=

>  <assay_description>  (449) 
Antagonist activity at human dopamine D2 receptor expressed in CHO cells assessed as inhibition of quinpirole-stimulated mitogenesis

>  <published_relation>  (449) 
=

>  <standard_value>  (449) 
29

>  <qudt_units>  (449) 
http://www.openphacts.org/units/Nanomolar

>  <target_tax_id>  (449) 
9606

>  <bao_label>  (449) 
cell-based format

>  <published_units>  (449) 
nM

>  <pchembl_value>  (449) 
7.54

>  <published_type>  (449) 
IC50

>  <activity_comment>  (449) 
None

$$$$

     RDKit          

 34 38  0  0  0  0  0  0  0  0999 V2000
    0.0000    0.0000    0.0000 O   0  0  0  0  0  0  0  0  0  0  0  0
    0.0000    0.0000    0.0000 C   0  0  0  0  0  0  0  0  0  0  0  0
    0.0000    0.0000    0.0000 C   0  0  0  0  0  0  0  0  0  0  0  0
    0.0000    0.0000    0.0000 C   0  0  0  0  0  0  0  0  0  0  0  0
    0.0000    0.0000    0.0000 N   0  0  0  0  0  0  0  0  0  0  0  0
    0.0000    0.0000    0.0000 C   0  0  0  0  0  0  0  0  0  0  0  0
    0.0000    0.0000    0.0000 O   0  0  0  0  0  0  0  0  0  0  0  0
    0.0000    0.0000    0.0000 C   0  0  0  0  0  0  0  0  0  0  0  0
    0.0000    0.0000    0.0000 C   0  0  0  0  0  0  0  0  0  0  0  0
    0.0000    0.0000    0.0000 N   0  0  0  0  0  0  0  0  0  0  0  0
    0.0000    0.0000    0.0000 C   0  0  0  0  0  0  0  0  0  0  0  0
    0.0000    0.0000    0.0000 C   0  0  0  0  0  0  0  0  0  0  0  0
    0.0000    0.0000    0.0000 C   0  0  0  0  0  0  0  0  0  0  0  0
    0.0000    0.0000    0.0000 C   0  0  0  0  0  0  0  0  0  0  0  0
    0.0000    0.0000    0.0000 C   0  0  0  0  0  0  0  0  0  0  0  0
    0.0000    0.0000    0.0000 C   0  0  0  0  0  0  0  0  0  0  0  0
    0.0000    0.0000    0.0000 C   0  0  0  0  0  0  0  0  0  0  0  0
    0.0000    0.0000    0.0000 C   0  0  0  0  0  0  0  0  0  0  0  0
    0.0000    0.0000    0.0000 N   0  0  0  0  0  0  0  0  0  0  0  0
    0.0000    0.0000    0.0000 C   0  0  0  0  0  0  0  0  0  0  0  0
    0.0000    0.0000    0.0000 C   0  0  0  0  0  0  0  0  0  0  0  0
    0.0000    0.0000    0.0000 N   0  0  0  0  0  0  0  0  0  0  0  0
    0.0000    0.0000    0.0000 C   0  0  0  0  0  0  0  0  0  0  0  0
    0.0000    0.0000    0.0000 C   0  0  0  0  0  0  0  0  0  0  0  0
    0.0000    0.0000    0.0000 C   0  0  0  0  0  0  0  0  0  0  0  0
    0.0000    0.0000    0.0000 C   0  0  0  0  0  0  0  0  0  0  0  0
    0.0000    0.0000    0.0000 C   0  0  0  0  0  0  0  0  0  0  0  0
    0.0000    0.0000    0.0000 C   0  0  0  0  0  0  0  0  0  0  0  0
    0.0000    0.0000    0.0000 C   0  0  0  0  0  0  0  0  0  0  0  0
    0.0000    0.0000    0.0000 C   0  0  0  0  0  0  0  0  0  0  0  0
    0.0000    0.0000    0.0000 C   0  0  0  0  0  0  0  0  0  0  0  0
    0.0000    0.0000    0.0000 C   0  0  0  0  0  0  0  0  0  0  0  0
    0.0000    0.0000    0.0000 C   0  0  0  0  0  0  0  0  0  0  0  0
    0.0000    0.0000    0.0000 C   0  0  0  0  0  0  0  0  0  0  0  0
  1  2  1  0
  2  3  1  0
  3  4  1  0
  4  5  1  0
  5  6  1  0
  6  7  2  0
  6  8  1  0
  8  9  2  0
  9 10  1  0
 10 11  2  0
 11 12  1  0
 12 13  2  0
 13 14  1  0
 14 15  2  0
 15 16  1  0
 16 17  2  0
  2 18  1  0
 18 19  1  0
 19 20  1  0
 20 21  1  0
 21 22  1  0
 22 23  1  0
 23 24  1  0
 22 25  1  0
 25 26  2  0
 26 27  1  0
 27 28  2  0
 28 29  1  0
 29 30  2  0
 30 31  1  0
 31 32  2  0
 32 33  1  0
 33 34  2  0
 17  8  1  0
 16 11  1  0
 24 19  1  0
 34 25  1  0
 34 29  1  0
M  END
>  <pIC50>  (450) 
6.14

>  <ChEMBL_ID>  (450) 
CHEMBL3597636

>  <document_journal>  (450) 
J. Med. Chem.

>  <bao_endpoint>  (450) 
BAO_0000190

>  <potential_duplicate>  (450) 
False

>  <uo_units>  (450) 
UO_0000065

>  <canonical_smiles>  (450) 
OC(CCNC(=O)c1cnc2ccccc2c1)CN3CCN(CC3)c4cccc5ccccc45

>  <parent_molecule_chembl_id>  (450) 
CHEMBL3597636

>  <assay_type>  (450) 
B

>  <src_id>  (450) 
1

>  <ligand_efficiency>  (450) 
{u'le': u'0.25', u'bei': u'13.51', u'sei': u'8.94', u'lle': u'2.69'}

>  <standard_flag>  (450) 
True

>  <molecule_chembl_id>  (450) 
CHEMBL3597636

>  <target_organism>  (450) 
Homo sapiens

>  <standard_units>  (450) 
nM

>  <record_id>  (450) 
2490995

>  <document_chembl_id>  (450) 
CHEMBL3596172

>  <bao_format>  (450) 
BAO_0000219

>  <data_validity_description>  (450) 
None

>  <activity_id>  (450) 
15657951

>  <standard_type>  (450) 
IC50

>  <target_chembl_id>  (450) 
CHEMBL217

>  <data_validity_comment>  (450) 
None

>  <published_value>  (450) 
720

>  <document_year>  (450) 
2015

>  <target_pref_name>  (450) 
Dopamine D2 receptor

>  <assay_chembl_id>  (450) 
CHEMBL3599945

>  <standard_relation>  (450) 
=

>  <assay_description>  (450) 
Antagonist activity at human dopamine D2 receptor expressed in CHO cells assessed as inhibition of quinpirole-stimulated mitogenesis

>  <published_relation>  (450) 
=

>  <standard_value>  (450) 
720

>  <qudt_units>  (450) 
http://www.openphacts.org/units/Nanomolar

>  <target_tax_id>  (450) 
9606

>  <bao_label>  (450) 
cell-based format

>  <published_units>  (450) 
nM

>  <pchembl_value>  (450) 
6.14

>  <published_type>  (450) 
IC50

>  <activity_comment>  (450) 
None

$$$$

     RDKit          

 32 35  0  0  0  0  0  0  0  0999 V2000
    0.0000    0.0000    0.0000 C   0  0  0  0  0  0  0  0  0  0  0  0
    0.0000    0.0000    0.0000 O   0  0  0  0  0  0  0  0  0  0  0  0
    0.0000    0.0000    0.0000 C   0  0  0  0  0  0  0  0  0  0  0  0
    0.0000    0.0000    0.0000 C   0  0  0  0  0  0  0  0  0  0  0  0
    0.0000    0.0000    0.0000 Cl  0  0  0  0  0  0  0  0  0  0  0  0
    0.0000    0.0000    0.0000 C   0  0  0  0  0  0  0  0  0  0  0  0
    0.0000    0.0000    0.0000 C   0  0  0  0  0  0  0  0  0  0  0  0
    0.0000    0.0000    0.0000 C   0  0  0  0  0  0  0  0  0  0  0  0
    0.0000    0.0000    0.0000 C   0  0  0  0  0  0  0  0  0  0  0  0
    0.0000    0.0000    0.0000 N   0  0  0  0  0  0  0  0  0  0  0  0
    0.0000    0.0000    0.0000 C   0  0  0  0  0  0  0  0  0  0  0  0
    0.0000    0.0000    0.0000 C   0  0  0  0  0  0  0  0  0  0  0  0
    0.0000    0.0000    0.0000 N   0  0  0  0  0  0  0  0  0  0  0  0
    0.0000    0.0000    0.0000 C   0  0  0  0  0  0  0  0  0  0  0  0
    0.0000    0.0000    0.0000 C   0  0  0  0  0  0  0  0  0  0  0  0
    0.0000    0.0000    0.0000 C   0  0  0  0  0  0  0  0  0  0  0  0
    0.0000    0.0000    0.0000 C   0  0  0  0  0  0  0  0  0  0  0  0
    0.0000    0.0000    0.0000 N   0  0  0  0  0  0  0  0  0  0  0  0
    0.0000    0.0000    0.0000 C   0  0  0  0  0  0  0  0  0  0  0  0
    0.0000    0.0000    0.0000 O   0  0  0  0  0  0  0  0  0  0  0  0
    0.0000    0.0000    0.0000 C   0  0  0  0  0  0  0  0  0  0  0  0
    0.0000    0.0000    0.0000 C   0  0  0  0  0  0  0  0  0  0  0  0
    0.0000    0.0000    0.0000 N   0  0  0  0  0  0  0  0  0  0  0  0
    0.0000    0.0000    0.0000 C   0  0  0  0  0  0  0  0  0  0  0  0
    0.0000    0.0000    0.0000 C   0  0  0  0  0  0  0  0  0  0  0  0
    0.0000    0.0000    0.0000 C   0  0  0  0  0  0  0  0  0  0  0  0
    0.0000    0.0000    0.0000 C   0  0  0  0  0  0  0  0  0  0  0  0
    0.0000    0.0000    0.0000 C   0  0  0  0  0  0  0  0  0  0  0  0
    0.0000    0.0000    0.0000 C   0  0  0  0  0  0  0  0  0  0  0  0
    0.0000    0.0000    0.0000 C   0  0  0  0  0  0  0  0  0  0  0  0
    0.0000    0.0000    0.0000 C   0  0  0  0  0  0  0  0  0  0  0  0
    0.0000    0.0000    0.0000 C   0  0  0  0  0  0  0  0  0  0  0  0
  1  2  1  0
  2  3  1  0
  3  4  2  0
  4  5  1  0
  4  6  1  0
  6  7  2  0
  7  8  1  0
  8  9  2  0
  9 10  1  0
 10 11  1  0
 11 12  1  0
 12 13  1  0
 13 14  1  0
 14 15  1  0
 15 16  1  0
 16 17  1  0
 17 18  1  0
 18 19  1  0
 19 20  2  0
 19 21  1  0
 21 22  2  0
 22 23  1  0
 23 24  2  0
 24 25  1  0
 25 26  2  0
 26 27  1  0
 27 28  2  0
 28 29  1  0
 29 30  2  0
 13 31  1  0
 31 32  1  0
  9  3  1  0
 32 10  1  0
 30 21  1  0
 29 24  1  0
M  END
>  <pIC50>  (451) 
7.2

>  <ChEMBL_ID>  (451) 
CHEMBL3597637

>  <document_journal>  (451) 
J. Med. Chem.

>  <bao_endpoint>  (451) 
BAO_0000190

>  <potential_duplicate>  (451) 
False

>  <uo_units>  (451) 
UO_0000065

>  <canonical_smiles>  (451) 
COc1c(Cl)cccc1N2CCN(CCCCNC(=O)c3cnc4ccccc4c3)CC2

>  <parent_molecule_chembl_id>  (451) 
CHEMBL3597637

>  <assay_type>  (451) 
B

>  <src_id>  (451) 
1

>  <ligand_efficiency>  (451) 
{u'le': u'0.31', u'bei': u'15.9', u'sei': u'12.48', u'lle': u'2.92'}

>  <standard_flag>  (451) 
True

>  <molecule_chembl_id>  (451) 
CHEMBL3597637

>  <target_organism>  (451) 
Homo sapiens

>  <standard_units>  (451) 
nM

>  <record_id>  (451) 
2490996

>  <document_chembl_id>  (451) 
CHEMBL3596172

>  <bao_format>  (451) 
BAO_0000219

>  <data_validity_description>  (451) 
None

>  <activity_id>  (451) 
15657952

>  <standard_type>  (451) 
IC50

>  <target_chembl_id>  (451) 
CHEMBL217

>  <data_validity_comment>  (451) 
None

>  <published_value>  (451) 
63

>  <document_year>  (451) 
2015

>  <target_pref_name>  (451) 
Dopamine D2 receptor

>  <assay_chembl_id>  (451) 
CHEMBL3599945

>  <standard_relation>  (451) 
=

>  <assay_description>  (451) 
Antagonist activity at human dopamine D2 receptor expressed in CHO cells assessed as inhibition of quinpirole-stimulated mitogenesis

>  <published_relation>  (451) 
=

>  <standard_value>  (451) 
63

>  <qudt_units>  (451) 
http://www.openphacts.org/units/Nanomolar

>  <target_tax_id>  (451) 
9606

>  <bao_label>  (451) 
cell-based format

>  <published_units>  (451) 
nM

>  <pchembl_value>  (451) 
7.2

>  <published_type>  (451) 
IC50

>  <activity_comment>  (451) 
None

$$$$

     RDKit          

 32 35  0  0  0  0  0  0  0  0999 V2000
    0.0000    0.0000    0.0000 C   0  0  0  0  0  0  0  0  0  0  0  0
    0.0000    0.0000    0.0000 O   0  0  0  0  0  0  0  0  0  0  0  0
    0.0000    0.0000    0.0000 C   0  0  0  0  0  0  0  0  0  0  0  0
    0.0000    0.0000    0.0000 C   0  0  0  0  0  0  0  0  0  0  0  0
    0.0000    0.0000    0.0000 C   0  0  0  0  0  0  0  0  0  0  0  0
    0.0000    0.0000    0.0000 N   0  0  0  0  0  0  0  0  0  0  0  0
    0.0000    0.0000    0.0000 C   0  0  0  0  0  0  0  0  0  0  0  0
    0.0000    0.0000    0.0000 N   0  0  0  0  0  0  0  0  0  0  0  0
    0.0000    0.0000    0.0000 C   0  0  0  0  0  0  0  0  0  0  0  0
    0.0000    0.0000    0.0000 N   0  0  0  0  0  0  0  0  0  0  0  0
    0.0000    0.0000    0.0000 C   0  0  0  0  0  0  0  0  0  0  0  0
    0.0000    0.0000    0.0000 C   0  0  0  0  0  0  0  0  0  0  0  0
    0.0000    0.0000    0.0000 C   0  0  0  0  0  0  0  0  0  0  0  0
    0.0000    0.0000    0.0000 C   0  0  0  0  0  0  0  0  0  0  0  0
    0.0000    0.0000    0.0000 C   0  0  0  0  0  0  0  0  0  0  0  0
    0.0000    0.0000    0.0000 Cl  0  0  0  0  0  0  0  0  0  0  0  0
    0.0000    0.0000    0.0000 C   0  0  0  0  0  0  0  0  0  0  0  0
    0.0000    0.0000    0.0000 F   0  0  0  0  0  0  0  0  0  0  0  0
    0.0000    0.0000    0.0000 C   0  0  0  0  0  0  0  0  0  0  0  0
    0.0000    0.0000    0.0000 C   0  0  0  0  0  0  0  0  0  0  0  0
    0.0000    0.0000    0.0000 C   0  0  0  0  0  0  0  0  0  0  0  0
    0.0000    0.0000    0.0000 O   0  0  0  0  0  0  0  0  0  0  0  0
    0.0000    0.0000    0.0000 C   0  0  0  0  0  0  0  0  0  0  0  0
    0.0000    0.0000    0.0000 O   0  0  0  0  0  0  0  0  0  0  0  0
    0.0000    0.0000    0.0000 N   0  0  0  0  0  0  0  0  0  0  0  0
    0.0000    0.0000    0.0000 C   0  0  0  0  0  0  0  0  0  0  0  0
    0.0000    0.0000    0.0000 C   0  0  0  0  0  0  0  0  0  0  0  0
    0.0000    0.0000    0.0000 N   0  0  0  0  0  0  0  0  0  0  0  0
    0.0000    0.0000    0.0000 C   0  0  0  0  0  0  0  0  0  0  0  0
    0.0000    0.0000    0.0000 C   0  0  0  0  0  0  0  0  0  0  0  0
    0.0000    0.0000    0.0000 C   0  0  0  0  0  0  0  0  0  0  0  0
    0.0000    0.0000    0.0000 C   0  0  0  0  0  0  0  0  0  0  0  0
  1  2  1  0
  2  3  1  0
  3  4  2  0
  4  5  1  0
  5  6  2  0
  6  7  1  0
  7  8  2  0
  8  9  1  0
  9 10  1  0
 10 11  1  0
 11 12  2  0
 12 13  1  0
 13 14  2  0
 14 15  1  0
 15 16  1  0
 15 17  2  0
 17 18  1  0
  9 19  2  0
 19 20  1  0
 20 21  2  0
 21 22  1  0
 22 23  1  0
 23 24  2  0
 23 25  1  0
 25 26  1  0
 26 27  1  0
 27 28  1  0
 28 29  1  0
 28 30  1  0
 30 31  1  0
 31 32  1  0
 21  3  1  0
 19  5  1  0
 17 11  1  0
 31 25  1  0
M  END
>  <pIC50>  (452) 
6.1

>  <ChEMBL_ID>  (452) 
CHEMBL3623290

>  <document_journal>  (452) 
J. Med. Chem.

>  <bao_endpoint>  (452) 
BAO_0000190

>  <potential_duplicate>  (452) 
False

>  <uo_units>  (452) 
UO_0000065

>  <canonical_smiles>  (452) 
COc1cc2ncnc(Nc3cccc(Cl)c3F)c2cc1OC(=O)N4CCN(C)C[C@H]4C

>  <parent_molecule_chembl_id>  (452) 
CHEMBL3623290

>  <assay_type>  (452) 
B

>  <src_id>  (452) 
1

>  <ligand_efficiency>  (452) 
{u'le': u'0.26', u'bei': u'13.26', u'sei': u'7.64', u'lle': u'1.46'}

>  <standard_flag>  (452) 
True

>  <molecule_chembl_id>  (452) 
CHEMBL3623290

>  <target_organism>  (452) 
Homo sapiens

>  <standard_units>  (452) 
nM

>  <record_id>  (452) 
2505818

>  <document_chembl_id>  (452) 
CHEMBL3621142

>  <bao_format>  (452) 
BAO_0000357

>  <data_validity_description>  (452) 
None

>  <activity_id>  (452) 
15745912

>  <standard_type>  (452) 
IC50

>  <target_chembl_id>  (452) 
CHEMBL217

>  <data_validity_comment>  (452) 
None

>  <published_value>  (452) 
797

>  <document_year>  (452) 
2015

>  <target_pref_name>  (452) 
Dopamine D2 receptor

>  <assay_chembl_id>  (452) 
CHEMBL3624486

>  <standard_relation>  (452) 
=

>  <assay_description>  (452) 
Inhibition of recombinant D2 receptor (unknown origin)

>  <published_relation>  (452) 
=

>  <standard_value>  (452) 
797

>  <qudt_units>  (452) 
http://www.openphacts.org/units/Nanomolar

>  <target_tax_id>  (452) 
9606

>  <bao_label>  (452) 
single protein format

>  <published_units>  (452) 
nM

>  <pchembl_value>  (452) 
6.1

>  <published_type>  (452) 
IC50

>  <activity_comment>  (452) 
None

$$$$

     RDKit          

 34 37  0  0  0  0  0  0  0  0999 V2000
    0.0000    0.0000    0.0000 O   0  0  0  0  0  0  0  0  0  0  0  0
    0.0000    0.0000    0.0000 C   0  0  0  0  0  0  0  0  0  0  0  0
    0.0000    0.0000    0.0000 C   0  0  0  0  0  0  0  0  0  0  0  0
    0.0000    0.0000    0.0000 C   0  0  0  0  0  0  0  0  0  0  0  0
    0.0000    0.0000    0.0000 N   0  0  0  0  0  0  0  0  0  0  0  0
    0.0000    0.0000    0.0000 C   0  0  0  0  0  0  0  0  0  0  0  0
    0.0000    0.0000    0.0000 O   0  0  0  0  0  0  0  0  0  0  0  0
    0.0000    0.0000    0.0000 C   0  0  0  0  0  0  0  0  0  0  0  0
    0.0000    0.0000    0.0000 C   0  0  0  0  0  0  0  0  0  0  0  0
    0.0000    0.0000    0.0000 C   0  0  0  0  0  0  0  0  0  0  0  0
    0.0000    0.0000    0.0000 C   0  0  0  0  0  0  0  0  0  0  0  0
    0.0000    0.0000    0.0000 C   0  0  0  0  0  0  0  0  0  0  0  0
    0.0000    0.0000    0.0000 C   0  0  0  0  0  0  0  0  0  0  0  0
    0.0000    0.0000    0.0000 C   0  0  0  0  0  0  0  0  0  0  0  0
    0.0000    0.0000    0.0000 C   0  0  0  0  0  0  0  0  0  0  0  0
    0.0000    0.0000    0.0000 C   0  0  0  0  0  0  0  0  0  0  0  0
    0.0000    0.0000    0.0000 C   0  0  0  0  0  0  0  0  0  0  0  0
    0.0000    0.0000    0.0000 C   0  0  0  0  0  0  0  0  0  0  0  0
    0.0000    0.0000    0.0000 N   0  0  0  0  0  0  0  0  0  0  0  0
    0.0000    0.0000    0.0000 C   0  0  0  0  0  0  0  0  0  0  0  0
    0.0000    0.0000    0.0000 N   0  0  0  0  0  0  0  0  0  0  0  0
    0.0000    0.0000    0.0000 C   0  0  0  0  0  0  0  0  0  0  0  0
    0.0000    0.0000    0.0000 C   0  0  0  0  0  0  0  0  0  0  0  0
    0.0000    0.0000    0.0000 N   0  0  0  0  0  0  0  0  0  0  0  0
    0.0000    0.0000    0.0000 C   0  0  0  0  0  0  0  0  0  0  0  0
    0.0000    0.0000    0.0000 C   0  0  0  0  0  0  0  0  0  0  0  0
    0.0000    0.0000    0.0000 C   0  0  0  0  0  0  0  0  0  0  0  0
    0.0000    0.0000    0.0000 C   0  0  0  0  0  0  0  0  0  0  0  0
    0.0000    0.0000    0.0000 C   0  0  0  0  0  0  0  0  0  0  0  0
    0.0000    0.0000    0.0000 C   0  0  0  0  0  0  0  0  0  0  0  0
    0.0000    0.0000    0.0000 C   0  0  0  0  0  0  0  0  0  0  0  0
    0.0000    0.0000    0.0000 Cl  0  0  0  0  0  0  0  0  0  0  0  0
    0.0000    0.0000    0.0000 C   0  0  0  0  0  0  0  0  0  0  0  0
    0.0000    0.0000    0.0000 Cl  0  0  0  0  0  0  0  0  0  0  0  0
  1  2  1  0
  2  3  1  0
  3  4  1  0
  4  5  1  0
  5  6  1  0
  6  7  2  0
  6  8  1  0
  8  9  2  0
  9 10  1  0
 10 11  2  0
 11 12  1  0
 12 13  2  0
 11 14  1  0
 14 15  2  0
 15 16  1  0
 16 17  2  0
 17 18  1  0
 18 19  2  0
  2 20  1  0
 20 21  1  0
 21 22  1  0
 22 23  1  0
 23 24  1  0
 24 25  1  0
 25 26  1  0
 24 27  1  0
 27 28  2  0
 28 29  1  0
 29 30  2  0
 30 31  1  0
 31 32  1  0
 31 33  2  0
 33 34  1  0
 13  8  1  0
 19 14  1  0
 26 21  1  0
 33 27  1  0
M  END
>  <pIC50>  (453) 
7.8

>  <ChEMBL_ID>  (453) 
CHEMBL244990

>  <document_journal>  (453) 
None

>  <bao_endpoint>  (453) 
BAO_0000190

>  <potential_duplicate>  (453) 
False

>  <uo_units>  (453) 
UO_0000065

>  <canonical_smiles>  (453) 
OC(CCNC(=O)c1ccc(cc1)c2ccccn2)CN3CCN(CC3)c4cccc(Cl)c4Cl

>  <parent_molecule_chembl_id>  (453) 
CHEMBL244990

>  <assay_type>  (453) 
B

>  <src_id>  (453) 
37

>  <ligand_efficiency>  (453) 
{u'le': u'0.31', u'bei': u'15.62', u'sei': u'11.36', u'lle': u'3.32'}

>  <standard_flag>  (453) 
True

>  <molecule_chembl_id>  (453) 
CHEMBL244990

>  <target_organism>  (453) 
Homo sapiens

>  <standard_units>  (453) 
nM

>  <record_id>  (453) 
2551458

>  <document_chembl_id>  (453) 
CHEMBL3638880

>  <bao_format>  (453) 
BAO_0000019

>  <data_validity_description>  (453) 
None

>  <activity_id>  (453) 
15826944

>  <standard_type>  (453) 
IC50

>  <target_chembl_id>  (453) 
CHEMBL217

>  <data_validity_comment>  (453) 
None

>  <published_value>  (453) 
15.8

>  <document_year>  (453) 
2014

>  <target_pref_name>  (453) 
Dopamine D2 receptor

>  <assay_chembl_id>  (453) 
CHEMBL3705175

>  <standard_relation>  (453) 
=

>  <assay_description>  (453) 
BindingDB_Patents: Functional Assay. To measure D2 and D3 stimulation of mitogenesis (agonist assay) or D2 and D3 inhibition of quinpirole stimulation of mitogenesis (antagonist assay), CHOp-cells (human receptor) were seeded in a 96-well plate at a concentration of 5,000 cells/well. The cells were incubated at 37C. in alpha -MEM with 10% FBS, 0.05% penicillin-streptomycin, and 200 ug/mL of G418. After 48 hours, the cells were rinsed twice with serum-free alpha -MEM and incubated for 24 hours at 37 C. In the functional assay for agonism, the medium was removed and replaced with 90 ul of serum-free alpha -MEM and 10 ul of test compound in sterile water; in the antagonist assay, the test compound was diluted in sterile water plus 30 nM quinpirole. After another 24-hour incubation at 37 C., 0.25 uCi of [3H]thymidine was added to each well and the plates were further incubated for 2 hours at 37 C. The cells were then trypsinized, and the plates were filtered and counted as usual in the art.

>  <published_relation>  (453) 
=

>  <standard_value>  (453) 
15.8

>  <qudt_units>  (453) 
http://www.openphacts.org/units/Nanomolar

>  <target_tax_id>  (453) 
9606

>  <bao_label>  (453) 
assay format

>  <published_units>  (453) 
nM

>  <pchembl_value>  (453) 
7.8

>  <published_type>  (453) 
IC50

>  <activity_comment>  (453) 
None

$$$$

     RDKit          

 32 35  0  0  0  0  0  0  0  0999 V2000
    0.0000    0.0000    0.0000 C   0  0  0  0  0  0  0  0  0  0  0  0
    0.0000    0.0000    0.0000 N   0  0  0  0  0  0  0  0  0  0  0  0
    0.0000    0.0000    0.0000 C   0  0  0  0  0  0  0  0  0  0  0  0
    0.0000    0.0000    0.0000 O   0  0  0  0  0  0  0  0  0  0  0  0
    0.0000    0.0000    0.0000 C   0  0  0  0  0  0  0  0  0  0  0  0
    0.0000    0.0000    0.0000 C   0  0  0  0  0  0  0  0  0  0  0  0
    0.0000    0.0000    0.0000 C   0  0  0  0  0  0  0  0  0  0  0  0
    0.0000    0.0000    0.0000 O   0  0  0  0  0  0  0  0  0  0  0  0
    0.0000    0.0000    0.0000 C   0  0  0  0  0  0  0  0  0  0  0  0
    0.0000    0.0000    0.0000 C   0  0  0  0  0  0  0  0  0  0  0  0
    0.0000    0.0000    0.0000 C   0  0  0  0  0  0  0  0  0  0  0  0
    0.0000    0.0000    0.0000 C   0  0  0  0  0  0  0  0  0  0  0  0
    0.0000    0.0000    0.0000 N   0  0  0  0  0  0  0  0  0  0  0  0
    0.0000    0.0000    0.0000 C   0  0  0  0  0  0  0  0  0  0  0  0
    0.0000    0.0000    0.0000 C   0  0  0  0  0  0  0  0  0  0  0  0
    0.0000    0.0000    0.0000 C   0  0  0  0  0  0  0  0  0  0  0  0
    0.0000    0.0000    0.0000 C   0  0  0  0  0  0  0  0  0  0  0  0
    0.0000    0.0000    0.0000 C   0  0  0  0  0  0  0  0  0  0  0  0
    0.0000    0.0000    0.0000 C   0  0  0  0  0  0  0  0  0  0  0  0
    0.0000    0.0000    0.0000 N   0  0  0  0  0  0  0  0  0  0  0  0
    0.0000    0.0000    0.0000 O   0  0  0  0  0  0  0  0  0  0  0  0
    0.0000    0.0000    0.0000 C   0  0  0  0  0  0  0  0  0  0  0  0
    0.0000    0.0000    0.0000 C   0  0  0  0  0  0  0  0  0  0  0  0
    0.0000    0.0000    0.0000 C   0  0  0  0  0  0  0  0  0  0  0  0
    0.0000    0.0000    0.0000 F   0  0  0  0  0  0  0  0  0  0  0  0
    0.0000    0.0000    0.0000 C   0  0  0  0  0  0  0  0  0  0  0  0
    0.0000    0.0000    0.0000 C   0  0  0  0  0  0  0  0  0  0  0  0
    0.0000    0.0000    0.0000 C   0  0  0  0  0  0  0  0  0  0  0  0
    0.0000    0.0000    0.0000 C   0  0  0  0  0  0  0  0  0  0  0  0
    0.0000    0.0000    0.0000 C   0  0  0  0  0  0  0  0  0  0  0  0
    0.0000    0.0000    0.0000 C   0  0  0  0  0  0  0  0  0  0  0  0
    0.0000    0.0000    0.0000 F   0  0  0  0  0  0  0  0  0  0  0  0
  1  2  1  0
  2  3  1  0
  3  4  2  0
  3  5  1  0
  5  6  2  0
  6  7  1  0
  7  8  1  0
  8  9  1  0
  9 10  1  0
 10 11  1  0
 11 12  1  0
 12 13  1  0
 13 14  1  0
 14 15  1  0
 15 16  1  0
 16 17  1  0
 17 18  1  0
 16 19  1  0
 19 20  2  0
 20 21  1  0
 21 22  1  0
 22 23  2  0
 23 24  1  0
 24 25  1  0
 24 26  2  0
 26 27  1  0
 27 28  2  0
  7 29  2  0
 29 30  1  0
 30 31  2  0
 31 32  1  0
 31  5  1  0
 18 13  1  0
 28 19  1  0
 28 22  1  0
M  END
>  <pIC50>  (454) 
7.64

>  <ChEMBL_ID>  (454) 
CHEMBL3805518

>  <document_journal>  (454) 
Bioorg. Med. Chem. Lett.

>  <bao_endpoint>  (454) 
BAO_0000190

>  <potential_duplicate>  (454) 
None

>  <uo_units>  (454) 
UO_0000065

>  <canonical_smiles>  (454) 
CNC(=O)c1cc(OCCCCN2CCC(CC2)c3noc4cc(F)ccc34)ccc1F

>  <parent_molecule_chembl_id>  (454) 
CHEMBL3805518

>  <assay_type>  (454) 
B

>  <src_id>  (454) 
1

>  <ligand_efficiency>  (454) 
None

>  <standard_flag>  (454) 
True

>  <molecule_chembl_id>  (454) 
CHEMBL3805518

>  <target_organism>  (454) 
Homo sapiens

>  <standard_units>  (454) 
nM

>  <record_id>  (454) 
2776859

>  <document_chembl_id>  (454) 
CHEMBL3804825

>  <bao_format>  (454) 
None

>  <data_validity_description>  (454) 
None

>  <activity_id>  (454) 
16587937

>  <standard_type>  (454) 
IC50

>  <target_chembl_id>  (454) 
CHEMBL217

>  <data_validity_comment>  (454) 
None

>  <published_value>  (454) 
23

>  <document_year>  (454) 
2016

>  <target_pref_name>  (454) 
Dopamine D2 receptor

>  <assay_chembl_id>  (454) 
CHEMBL3806800

>  <standard_relation>  (454) 
=

>  <assay_description>  (454) 
Antagonistic activity at human dopamine D2 receptor measured after 60 mins by Ultra Lance cAMP assay

>  <published_relation>  (454) 
=

>  <standard_value>  (454) 
23

>  <qudt_units>  (454) 
http://www.openphacts.org/units/Nanomolar

>  <target_tax_id>  (454) 
9606

>  <bao_label>  (454) 
None

>  <published_units>  (454) 
nM

>  <pchembl_value>  (454) 
7.64

>  <published_type>  (454) 
IC50

>  <activity_comment>  (454) 
None

$$$$

     RDKit          

 31 34  0  0  0  0  0  0  0  0999 V2000
    0.0000    0.0000    0.0000 C   0  0  0  0  0  0  0  0  0  0  0  0
    0.0000    0.0000    0.0000 N   0  0  0  0  0  0  0  0  0  0  0  0
    0.0000    0.0000    0.0000 C   0  0  0  0  0  0  0  0  0  0  0  0
    0.0000    0.0000    0.0000 O   0  0  0  0  0  0  0  0  0  0  0  0
    0.0000    0.0000    0.0000 C   0  0  0  0  0  0  0  0  0  0  0  0
    0.0000    0.0000    0.0000 C   0  0  0  0  0  0  0  0  0  0  0  0
    0.0000    0.0000    0.0000 C   0  0  0  0  0  0  0  0  0  0  0  0
    0.0000    0.0000    0.0000 C   0  0  0  0  0  0  0  0  0  0  0  0
    0.0000    0.0000    0.0000 C   0  0  0  0  0  0  0  0  0  0  0  0
    0.0000    0.0000    0.0000 O   0  0  0  0  0  0  0  0  0  0  0  0
    0.0000    0.0000    0.0000 C   0  0  0  0  0  0  0  0  0  0  0  0
    0.0000    0.0000    0.0000 C   0  0  0  0  0  0  0  0  0  0  0  0
    0.0000    0.0000    0.0000 C   0  0  0  0  0  0  0  0  0  0  0  0
    0.0000    0.0000    0.0000 C   0  0  0  0  0  0  0  0  0  0  0  0
    0.0000    0.0000    0.0000 N   0  0  0  0  0  0  0  0  0  0  0  0
    0.0000    0.0000    0.0000 C   0  0  0  0  0  0  0  0  0  0  0  0
    0.0000    0.0000    0.0000 C   0  0  0  0  0  0  0  0  0  0  0  0
    0.0000    0.0000    0.0000 C   0  0  0  0  0  0  0  0  0  0  0  0
    0.0000    0.0000    0.0000 C   0  0  0  0  0  0  0  0  0  0  0  0
    0.0000    0.0000    0.0000 C   0  0  0  0  0  0  0  0  0  0  0  0
    0.0000    0.0000    0.0000 C   0  0  0  0  0  0  0  0  0  0  0  0
    0.0000    0.0000    0.0000 N   0  0  0  0  0  0  0  0  0  0  0  0
    0.0000    0.0000    0.0000 O   0  0  0  0  0  0  0  0  0  0  0  0
    0.0000    0.0000    0.0000 C   0  0  0  0  0  0  0  0  0  0  0  0
    0.0000    0.0000    0.0000 C   0  0  0  0  0  0  0  0  0  0  0  0
    0.0000    0.0000    0.0000 C   0  0  0  0  0  0  0  0  0  0  0  0
    0.0000    0.0000    0.0000 F   0  0  0  0  0  0  0  0  0  0  0  0
    0.0000    0.0000    0.0000 C   0  0  0  0  0  0  0  0  0  0  0  0
    0.0000    0.0000    0.0000 C   0  0  0  0  0  0  0  0  0  0  0  0
    0.0000    0.0000    0.0000 C   0  0  0  0  0  0  0  0  0  0  0  0
    0.0000    0.0000    0.0000 C   0  0  0  0  0  0  0  0  0  0  0  0
  1  2  1  0
  2  3  1  0
  3  4  2  0
  3  5  1  0
  5  6  2  0
  6  7  1  0
  7  8  2  0
  8  9  1  0
  9 10  1  0
 10 11  1  0
 11 12  1  0
 12 13  1  0
 13 14  1  0
 14 15  1  0
 15 16  1  0
 16 17  1  0
 17 18  1  0
 18 19  1  0
 19 20  1  0
 18 21  1  0
 21 22  2  0
 22 23  1  0
 23 24  1  0
 24 25  2  0
 25 26  1  0
 26 27  1  0
 26 28  2  0
 28 29  1  0
 29 30  2  0
  9 31  2  0
 31  5  1  0
 20 15  1  0
 30 21  1  0
 30 24  1  0
M  END
>  <pIC50>  (455) 
8.07

>  <ChEMBL_ID>  (455) 
CHEMBL3805559

>  <document_journal>  (455) 
Bioorg. Med. Chem. Lett.

>  <bao_endpoint>  (455) 
BAO_0000190

>  <potential_duplicate>  (455) 
None

>  <uo_units>  (455) 
UO_0000065

>  <canonical_smiles>  (455) 
CNC(=O)c1cccc(OCCCCN2CCC(CC2)c3noc4cc(F)ccc34)c1

>  <parent_molecule_chembl_id>  (455) 
CHEMBL3805559

>  <assay_type>  (455) 
B

>  <src_id>  (455) 
1

>  <ligand_efficiency>  (455) 
None

>  <standard_flag>  (455) 
True

>  <molecule_chembl_id>  (455) 
CHEMBL3805559

>  <target_organism>  (455) 
Homo sapiens

>  <standard_units>  (455) 
nM

>  <record_id>  (455) 
2776858

>  <document_chembl_id>  (455) 
CHEMBL3804825

>  <bao_format>  (455) 
None

>  <data_validity_description>  (455) 
None

>  <activity_id>  (455) 
16587953

>  <standard_type>  (455) 
IC50

>  <target_chembl_id>  (455) 
CHEMBL217

>  <data_validity_comment>  (455) 
None

>  <published_value>  (455) 
8.5

>  <document_year>  (455) 
2016

>  <target_pref_name>  (455) 
Dopamine D2 receptor

>  <assay_chembl_id>  (455) 
CHEMBL3806800

>  <standard_relation>  (455) 
=

>  <assay_description>  (455) 
Antagonistic activity at human dopamine D2 receptor measured after 60 mins by Ultra Lance cAMP assay

>  <published_relation>  (455) 
=

>  <standard_value>  (455) 
8.5

>  <qudt_units>  (455) 
http://www.openphacts.org/units/Nanomolar

>  <target_tax_id>  (455) 
9606

>  <bao_label>  (455) 
None

>  <published_units>  (455) 
nM

>  <pchembl_value>  (455) 
8.07

>  <published_type>  (455) 
IC50

>  <activity_comment>  (455) 
None

$$$$

     RDKit          

 29 31  0  0  0  0  0  0  0  0999 V2000
    0.0000    0.0000    0.0000 C   0  0  0  0  0  0  0  0  0  0  0  0
    0.0000    0.0000    0.0000 N   0  0  0  0  0  0  0  0  0  0  0  0
    0.0000    0.0000    0.0000 C   0  0  0  0  0  0  0  0  0  0  0  0
    0.0000    0.0000    0.0000 O   0  0  0  0  0  0  0  0  0  0  0  0
    0.0000    0.0000    0.0000 C   0  0  0  0  0  0  0  0  0  0  0  0
    0.0000    0.0000    0.0000 C   0  0  0  0  0  0  0  0  0  0  0  0
    0.0000    0.0000    0.0000 C   0  0  0  0  0  0  0  0  0  0  0  0
    0.0000    0.0000    0.0000 C   0  0  0  0  0  0  0  0  0  0  0  0
    0.0000    0.0000    0.0000 O   0  0  0  0  0  0  0  0  0  0  0  0
    0.0000    0.0000    0.0000 C   0  0  0  0  0  0  0  0  0  0  0  0
    0.0000    0.0000    0.0000 C   0  0  0  0  0  0  0  0  0  0  0  0
    0.0000    0.0000    0.0000 C   0  0  0  0  0  0  0  0  0  0  0  0
    0.0000    0.0000    0.0000 C   0  0  0  0  0  0  0  0  0  0  0  0
    0.0000    0.0000    0.0000 N   0  0  0  0  0  0  0  0  0  0  0  0
    0.0000    0.0000    0.0000 C   0  0  0  0  0  0  0  0  0  0  0  0
    0.0000    0.0000    0.0000 C   0  0  0  0  0  0  0  0  0  0  0  0
    0.0000    0.0000    0.0000 N   0  0  0  0  0  0  0  0  0  0  0  0
    0.0000    0.0000    0.0000 C   0  0  0  0  0  0  0  0  0  0  0  0
    0.0000    0.0000    0.0000 C   0  0  0  0  0  0  0  0  0  0  0  0
    0.0000    0.0000    0.0000 C   0  0  0  0  0  0  0  0  0  0  0  0
    0.0000    0.0000    0.0000 C   0  0  0  0  0  0  0  0  0  0  0  0
    0.0000    0.0000    0.0000 C   0  0  0  0  0  0  0  0  0  0  0  0
    0.0000    0.0000    0.0000 C   0  0  0  0  0  0  0  0  0  0  0  0
    0.0000    0.0000    0.0000 C   0  0  0  0  0  0  0  0  0  0  0  0
    0.0000    0.0000    0.0000 Cl  0  0  0  0  0  0  0  0  0  0  0  0
    0.0000    0.0000    0.0000 C   0  0  0  0  0  0  0  0  0  0  0  0
    0.0000    0.0000    0.0000 Cl  0  0  0  0  0  0  0  0  0  0  0  0
    0.0000    0.0000    0.0000 C   0  0  0  0  0  0  0  0  0  0  0  0
    0.0000    0.0000    0.0000 C   0  0  0  0  0  0  0  0  0  0  0  0
  1  2  1  0
  2  3  1  0
  3  4  2  0
  3  5  1  0
  5  6  2  0
  6  7  1  0
  7  8  2  0
  8  9  1  0
  9 10  1  0
 10 11  1  0
 11 12  1  0
 12 13  1  0
 13 14  1  0
 14 15  1  0
 15 16  1  0
 16 17  1  0
 17 18  1  0
 18 19  1  0
 17 20  1  0
 20 21  2  0
 21 22  1  0
 22 23  2  0
 23 24  1  0
 24 25  1  0
 24 26  2  0
 26 27  1  0
  8 28  1  0
 28 29  2  0
 29  5  1  0
 19 14  1  0
 26 20  1  0
M  END
>  <pIC50>  (456) 
7.16

>  <ChEMBL_ID>  (456) 
CHEMBL3805376

>  <document_journal>  (456) 
Bioorg. Med. Chem. Lett.

>  <bao_endpoint>  (456) 
BAO_0000190

>  <potential_duplicate>  (456) 
None

>  <uo_units>  (456) 
UO_0000065

>  <canonical_smiles>  (456) 
CNC(=O)c1ccc(OCCCCN2CCN(CC2)c3cccc(Cl)c3Cl)cc1

>  <parent_molecule_chembl_id>  (456) 
CHEMBL3805376

>  <assay_type>  (456) 
B

>  <src_id>  (456) 
1

>  <ligand_efficiency>  (456) 
None

>  <standard_flag>  (456) 
True

>  <molecule_chembl_id>  (456) 
CHEMBL3805376

>  <target_organism>  (456) 
Homo sapiens

>  <standard_units>  (456) 
nM

>  <record_id>  (456) 
2776857

>  <document_chembl_id>  (456) 
CHEMBL3804825

>  <bao_format>  (456) 
None

>  <data_validity_description>  (456) 
None

>  <activity_id>  (456) 
16587956

>  <standard_type>  (456) 
IC50

>  <target_chembl_id>  (456) 
CHEMBL217

>  <data_validity_comment>  (456) 
None

>  <published_value>  (456) 
70

>  <document_year>  (456) 
2016

>  <target_pref_name>  (456) 
Dopamine D2 receptor

>  <assay_chembl_id>  (456) 
CHEMBL3806800

>  <standard_relation>  (456) 
=

>  <assay_description>  (456) 
Antagonistic activity at human dopamine D2 receptor measured after 60 mins by Ultra Lance cAMP assay

>  <published_relation>  (456) 
=

>  <standard_value>  (456) 
70

>  <qudt_units>  (456) 
http://www.openphacts.org/units/Nanomolar

>  <target_tax_id>  (456) 
9606

>  <bao_label>  (456) 
None

>  <published_units>  (456) 
nM

>  <pchembl_value>  (456) 
7.16

>  <published_type>  (456) 
IC50

>  <activity_comment>  (456) 
None

$$$$

     RDKit          

 29 31  0  0  0  0  0  0  0  0999 V2000
    0.0000    0.0000    0.0000 C   0  0  0  0  0  0  0  0  0  0  0  0
    0.0000    0.0000    0.0000 N   0  0  0  0  0  0  0  0  0  0  0  0
    0.0000    0.0000    0.0000 C   0  0  0  0  0  0  0  0  0  0  0  0
    0.0000    0.0000    0.0000 O   0  0  0  0  0  0  0  0  0  0  0  0
    0.0000    0.0000    0.0000 C   0  0  0  0  0  0  0  0  0  0  0  0
    0.0000    0.0000    0.0000 C   0  0  0  0  0  0  0  0  0  0  0  0
    0.0000    0.0000    0.0000 C   0  0  0  0  0  0  0  0  0  0  0  0
    0.0000    0.0000    0.0000 C   0  0  0  0  0  0  0  0  0  0  0  0
    0.0000    0.0000    0.0000 C   0  0  0  0  0  0  0  0  0  0  0  0
    0.0000    0.0000    0.0000 C   0  0  0  0  0  0  0  0  0  0  0  0
    0.0000    0.0000    0.0000 O   0  0  0  0  0  0  0  0  0  0  0  0
    0.0000    0.0000    0.0000 C   0  0  0  0  0  0  0  0  0  0  0  0
    0.0000    0.0000    0.0000 C   0  0  0  0  0  0  0  0  0  0  0  0
    0.0000    0.0000    0.0000 C   0  0  0  0  0  0  0  0  0  0  0  0
    0.0000    0.0000    0.0000 C   0  0  0  0  0  0  0  0  0  0  0  0
    0.0000    0.0000    0.0000 N   0  0  0  0  0  0  0  0  0  0  0  0
    0.0000    0.0000    0.0000 C   0  0  0  0  0  0  0  0  0  0  0  0
    0.0000    0.0000    0.0000 C   0  0  0  0  0  0  0  0  0  0  0  0
    0.0000    0.0000    0.0000 N   0  0  0  0  0  0  0  0  0  0  0  0
    0.0000    0.0000    0.0000 C   0  0  0  0  0  0  0  0  0  0  0  0
    0.0000    0.0000    0.0000 C   0  0  0  0  0  0  0  0  0  0  0  0
    0.0000    0.0000    0.0000 C   0  0  0  0  0  0  0  0  0  0  0  0
    0.0000    0.0000    0.0000 C   0  0  0  0  0  0  0  0  0  0  0  0
    0.0000    0.0000    0.0000 C   0  0  0  0  0  0  0  0  0  0  0  0
    0.0000    0.0000    0.0000 C   0  0  0  0  0  0  0  0  0  0  0  0
    0.0000    0.0000    0.0000 C   0  0  0  0  0  0  0  0  0  0  0  0
    0.0000    0.0000    0.0000 Cl  0  0  0  0  0  0  0  0  0  0  0  0
    0.0000    0.0000    0.0000 C   0  0  0  0  0  0  0  0  0  0  0  0
    0.0000    0.0000    0.0000 Cl  0  0  0  0  0  0  0  0  0  0  0  0
  1  2  1  0
  2  3  1  0
  3  4  2  0
  3  5  1  0
  5  6  2  0
  6  7  1  0
  7  8  2  0
  8  9  1  0
  9 10  2  0
 10 11  1  0
 11 12  1  0
 12 13  1  0
 13 14  1  0
 14 15  1  0
 15 16  1  0
 16 17  1  0
 17 18  1  0
 18 19  1  0
 19 20  1  0
 20 21  1  0
 19 22  1  0
 22 23  2  0
 23 24  1  0
 24 25  2  0
 25 26  1  0
 26 27  1  0
 26 28  2  0
 28 29  1  0
 10  5  1  0
 21 16  1  0
 28 22  1  0
M  END
>  <pIC50>  (457) 
6.78

>  <ChEMBL_ID>  (457) 
CHEMBL3804954

>  <document_journal>  (457) 
Bioorg. Med. Chem. Lett.

>  <bao_endpoint>  (457) 
BAO_0000190

>  <potential_duplicate>  (457) 
None

>  <uo_units>  (457) 
UO_0000065

>  <canonical_smiles>  (457) 
CNC(=O)c1ccccc1OCCCCN2CCN(CC2)c3cccc(Cl)c3Cl

>  <parent_molecule_chembl_id>  (457) 
CHEMBL3804954

>  <assay_type>  (457) 
B

>  <src_id>  (457) 
1

>  <ligand_efficiency>  (457) 
None

>  <standard_flag>  (457) 
True

>  <molecule_chembl_id>  (457) 
CHEMBL3804954

>  <target_organism>  (457) 
Homo sapiens

>  <standard_units>  (457) 
nM

>  <record_id>  (457) 
2776856

>  <document_chembl_id>  (457) 
CHEMBL3804825

>  <bao_format>  (457) 
None

>  <data_validity_description>  (457) 
None

>  <activity_id>  (457) 
16587959

>  <standard_type>  (457) 
IC50

>  <target_chembl_id>  (457) 
CHEMBL217

>  <data_validity_comment>  (457) 
None

>  <published_value>  (457) 
167

>  <document_year>  (457) 
2016

>  <target_pref_name>  (457) 
Dopamine D2 receptor

>  <assay_chembl_id>  (457) 
CHEMBL3806800

>  <standard_relation>  (457) 
=

>  <assay_description>  (457) 
Antagonistic activity at human dopamine D2 receptor measured after 60 mins by Ultra Lance cAMP assay

>  <published_relation>  (457) 
=

>  <standard_value>  (457) 
167

>  <qudt_units>  (457) 
http://www.openphacts.org/units/Nanomolar

>  <target_tax_id>  (457) 
9606

>  <bao_label>  (457) 
None

>  <published_units>  (457) 
nM

>  <pchembl_value>  (457) 
6.78

>  <published_type>  (457) 
IC50

>  <activity_comment>  (457) 
None

$$$$

     RDKit          

 29 31  0  0  0  0  0  0  0  0999 V2000
    0.0000    0.0000    0.0000 C   0  0  0  0  0  0  0  0  0  0  0  0
    0.0000    0.0000    0.0000 C   0  0  0  0  0  0  0  0  0  0  0  0
    0.0000    0.0000    0.0000 O   0  0  0  0  0  0  0  0  0  0  0  0
    0.0000    0.0000    0.0000 N   0  0  0  0  0  0  0  0  0  0  0  0
    0.0000    0.0000    0.0000 C   0  0  0  0  0  0  0  0  0  0  0  0
    0.0000    0.0000    0.0000 C   0  0  0  0  0  0  0  0  0  0  0  0
    0.0000    0.0000    0.0000 C   0  0  0  0  0  0  0  0  0  0  0  0
    0.0000    0.0000    0.0000 C   0  0  0  0  0  0  0  0  0  0  0  0
    0.0000    0.0000    0.0000 C   0  0  0  0  0  0  0  0  0  0  0  0
    0.0000    0.0000    0.0000 O   0  0  0  0  0  0  0  0  0  0  0  0
    0.0000    0.0000    0.0000 C   0  0  0  0  0  0  0  0  0  0  0  0
    0.0000    0.0000    0.0000 C   0  0  0  0  0  0  0  0  0  0  0  0
    0.0000    0.0000    0.0000 C   0  0  0  0  0  0  0  0  0  0  0  0
    0.0000    0.0000    0.0000 C   0  0  0  0  0  0  0  0  0  0  0  0
    0.0000    0.0000    0.0000 N   0  0  0  0  0  0  0  0  0  0  0  0
    0.0000    0.0000    0.0000 C   0  0  0  0  0  0  0  0  0  0  0  0
    0.0000    0.0000    0.0000 C   0  0  0  0  0  0  0  0  0  0  0  0
    0.0000    0.0000    0.0000 N   0  0  0  0  0  0  0  0  0  0  0  0
    0.0000    0.0000    0.0000 C   0  0  0  0  0  0  0  0  0  0  0  0
    0.0000    0.0000    0.0000 C   0  0  0  0  0  0  0  0  0  0  0  0
    0.0000    0.0000    0.0000 C   0  0  0  0  0  0  0  0  0  0  0  0
    0.0000    0.0000    0.0000 C   0  0  0  0  0  0  0  0  0  0  0  0
    0.0000    0.0000    0.0000 C   0  0  0  0  0  0  0  0  0  0  0  0
    0.0000    0.0000    0.0000 C   0  0  0  0  0  0  0  0  0  0  0  0
    0.0000    0.0000    0.0000 C   0  0  0  0  0  0  0  0  0  0  0  0
    0.0000    0.0000    0.0000 Cl  0  0  0  0  0  0  0  0  0  0  0  0
    0.0000    0.0000    0.0000 C   0  0  0  0  0  0  0  0  0  0  0  0
    0.0000    0.0000    0.0000 Cl  0  0  0  0  0  0  0  0  0  0  0  0
    0.0000    0.0000    0.0000 C   0  0  0  0  0  0  0  0  0  0  0  0
  1  2  1  0
  2  3  2  0
  2  4  1  0
  4  5  1  0
  5  6  2  0
  6  7  1  0
  7  8  2  0
  8  9  1  0
  9 10  1  0
 10 11  1  0
 11 12  1  0
 12 13  1  0
 13 14  1  0
 14 15  1  0
 15 16  1  0
 16 17  1  0
 17 18  1  0
 18 19  1  0
 19 20  1  0
 18 21  1  0
 21 22  2  0
 22 23  1  0
 23 24  2  0
 24 25  1  0
 25 26  1  0
 25 27  2  0
 27 28  1  0
  9 29  2  0
 29  5  1  0
 20 15  1  0
 27 21  1  0
M  END
>  <pIC50>  (458) 
7.01

>  <ChEMBL_ID>  (458) 
CHEMBL3805600

>  <document_journal>  (458) 
Bioorg. Med. Chem. Lett.

>  <bao_endpoint>  (458) 
BAO_0000190

>  <potential_duplicate>  (458) 
None

>  <uo_units>  (458) 
UO_0000065

>  <canonical_smiles>  (458) 
CC(=O)Nc1cccc(OCCCCN2CCN(CC2)c3cccc(Cl)c3Cl)c1

>  <parent_molecule_chembl_id>  (458) 
CHEMBL3805600

>  <assay_type>  (458) 
B

>  <src_id>  (458) 
1

>  <ligand_efficiency>  (458) 
None

>  <standard_flag>  (458) 
True

>  <molecule_chembl_id>  (458) 
CHEMBL3805600

>  <target_organism>  (458) 
Homo sapiens

>  <standard_units>  (458) 
nM

>  <record_id>  (458) 
2776710

>  <document_chembl_id>  (458) 
CHEMBL3804825

>  <bao_format>  (458) 
None

>  <data_validity_description>  (458) 
None

>  <activity_id>  (458) 
16587962

>  <standard_type>  (458) 
IC50

>  <target_chembl_id>  (458) 
CHEMBL217

>  <data_validity_comment>  (458) 
None

>  <published_value>  (458) 
98.4

>  <document_year>  (458) 
2016

>  <target_pref_name>  (458) 
Dopamine D2 receptor

>  <assay_chembl_id>  (458) 
CHEMBL3806800

>  <standard_relation>  (458) 
=

>  <assay_description>  (458) 
Antagonistic activity at human dopamine D2 receptor measured after 60 mins by Ultra Lance cAMP assay

>  <published_relation>  (458) 
=

>  <standard_value>  (458) 
98.4

>  <qudt_units>  (458) 
http://www.openphacts.org/units/Nanomolar

>  <target_tax_id>  (458) 
9606

>  <bao_label>  (458) 
None

>  <published_units>  (458) 
nM

>  <pchembl_value>  (458) 
7.01

>  <published_type>  (458) 
IC50

>  <activity_comment>  (458) 
None

$$$$

     RDKit          

 30 33  0  0  0  0  0  0  0  0999 V2000
    0.0000    0.0000    0.0000 C   0  0  0  0  0  0  0  0  0  0  0  0
    0.0000    0.0000    0.0000 N   0  0  0  0  0  0  0  0  0  0  0  0
    0.0000    0.0000    0.0000 C   0  0  0  0  0  0  0  0  0  0  0  0
    0.0000    0.0000    0.0000 O   0  0  0  0  0  0  0  0  0  0  0  0
    0.0000    0.0000    0.0000 C   0  0  0  0  0  0  0  0  0  0  0  0
    0.0000    0.0000    0.0000 C   0  0  0  0  0  0  0  0  0  0  0  0
    0.0000    0.0000    0.0000 C   0  0  0  0  0  0  0  0  0  0  0  0
    0.0000    0.0000    0.0000 C   0  0  0  0  0  0  0  0  0  0  0  0
    0.0000    0.0000    0.0000 C   0  0  0  0  0  0  0  0  0  0  0  0
    0.0000    0.0000    0.0000 O   0  0  0  0  0  0  0  0  0  0  0  0
    0.0000    0.0000    0.0000 C   0  0  0  0  0  0  0  0  0  0  0  0
    0.0000    0.0000    0.0000 C   0  0  0  0  0  0  0  0  0  0  0  0
    0.0000    0.0000    0.0000 C   0  0  0  0  0  0  0  0  0  0  0  0
    0.0000    0.0000    0.0000 C   0  0  0  0  0  0  0  0  0  0  0  0
    0.0000    0.0000    0.0000 N   0  0  0  0  0  0  0  0  0  0  0  0
    0.0000    0.0000    0.0000 C   0  0  0  0  0  0  0  0  0  0  0  0
    0.0000    0.0000    0.0000 C   0  0  0  0  0  0  0  0  0  0  0  0
    0.0000    0.0000    0.0000 N   0  0  0  0  0  0  0  0  0  0  0  0
    0.0000    0.0000    0.0000 C   0  0  0  0  0  0  0  0  0  0  0  0
    0.0000    0.0000    0.0000 C   0  0  0  0  0  0  0  0  0  0  0  0
    0.0000    0.0000    0.0000 C   0  0  0  0  0  0  0  0  0  0  0  0
    0.0000    0.0000    0.0000 N   0  0  0  0  0  0  0  0  0  0  0  0
    0.0000    0.0000    0.0000 S   0  0  0  0  0  0  0  0  0  0  0  0
    0.0000    0.0000    0.0000 C   0  0  0  0  0  0  0  0  0  0  0  0
    0.0000    0.0000    0.0000 C   0  0  0  0  0  0  0  0  0  0  0  0
    0.0000    0.0000    0.0000 C   0  0  0  0  0  0  0  0  0  0  0  0
    0.0000    0.0000    0.0000 C   0  0  0  0  0  0  0  0  0  0  0  0
    0.0000    0.0000    0.0000 C   0  0  0  0  0  0  0  0  0  0  0  0
    0.0000    0.0000    0.0000 C   0  0  0  0  0  0  0  0  0  0  0  0
    0.0000    0.0000    0.0000 C   0  0  0  0  0  0  0  0  0  0  0  0
  1  2  1  0
  2  3  1  0
  3  4  2  0
  3  5  1  0
  5  6  2  0
  6  7  1  0
  7  8  2  0
  8  9  1  0
  9 10  1  0
 10 11  1  0
 11 12  1  0
 12 13  1  0
 13 14  1  0
 14 15  1  0
 15 16  1  0
 16 17  1  0
 17 18  1  0
 18 19  1  0
 19 20  1  0
 18 21  1  0
 21 22  2  0
 22 23  1  0
 23 24  1  0
 24 25  2  0
 25 26  1  0
 26 27  2  0
 27 28  1  0
 28 29  2  0
  9 30  2  0
 30  5  1  0
 20 15  1  0
 29 21  1  0
 29 24  1  0
M  END
>  <pIC50>  (459) 
8.0

>  <ChEMBL_ID>  (459) 
CHEMBL3805860

>  <document_journal>  (459) 
Bioorg. Med. Chem. Lett.

>  <bao_endpoint>  (459) 
BAO_0000190

>  <potential_duplicate>  (459) 
None

>  <uo_units>  (459) 
UO_0000065

>  <canonical_smiles>  (459) 
CNC(=O)c1cccc(OCCCCN2CCN(CC2)c3nsc4ccccc34)c1

>  <parent_molecule_chembl_id>  (459) 
CHEMBL3805860

>  <assay_type>  (459) 
B

>  <src_id>  (459) 
1

>  <ligand_efficiency>  (459) 
None

>  <standard_flag>  (459) 
True

>  <molecule_chembl_id>  (459) 
CHEMBL3805860

>  <target_organism>  (459) 
Homo sapiens

>  <standard_units>  (459) 
nM

>  <record_id>  (459) 
2776860

>  <document_chembl_id>  (459) 
CHEMBL3804825

>  <bao_format>  (459) 
None

>  <data_validity_description>  (459) 
None

>  <activity_id>  (459) 
16587983

>  <standard_type>  (459) 
IC50

>  <target_chembl_id>  (459) 
CHEMBL217

>  <data_validity_comment>  (459) 
None

>  <published_value>  (459) 
10

>  <document_year>  (459) 
2016

>  <target_pref_name>  (459) 
Dopamine D2 receptor

>  <assay_chembl_id>  (459) 
CHEMBL3806800

>  <standard_relation>  (459) 
=

>  <assay_description>  (459) 
Antagonistic activity at human dopamine D2 receptor measured after 60 mins by Ultra Lance cAMP assay

>  <published_relation>  (459) 
=

>  <standard_value>  (459) 
10

>  <qudt_units>  (459) 
http://www.openphacts.org/units/Nanomolar

>  <target_tax_id>  (459) 
9606

>  <bao_label>  (459) 
None

>  <published_units>  (459) 
nM

>  <pchembl_value>  (459) 
8

>  <published_type>  (459) 
IC50

>  <activity_comment>  (459) 
None

$$$$

     RDKit          

 31 34  0  0  0  0  0  0  0  0999 V2000
    0.0000    0.0000    0.0000 C   0  0  0  0  0  0  0  0  0  0  0  0
    0.0000    0.0000    0.0000 N   0  0  0  0  0  0  0  0  0  0  0  0
    0.0000    0.0000    0.0000 C   0  0  0  0  0  0  0  0  0  0  0  0
    0.0000    0.0000    0.0000 O   0  0  0  0  0  0  0  0  0  0  0  0
    0.0000    0.0000    0.0000 C   0  0  0  0  0  0  0  0  0  0  0  0
    0.0000    0.0000    0.0000 C   0  0  0  0  0  0  0  0  0  0  0  0
    0.0000    0.0000    0.0000 C   0  0  0  0  0  0  0  0  0  0  0  0
    0.0000    0.0000    0.0000 O   0  0  0  0  0  0  0  0  0  0  0  0
    0.0000    0.0000    0.0000 C   0  0  0  0  0  0  0  0  0  0  0  0
    0.0000    0.0000    0.0000 C   0  0  0  0  0  0  0  0  0  0  0  0
    0.0000    0.0000    0.0000 C   0  0  0  0  0  0  0  0  0  0  0  0
    0.0000    0.0000    0.0000 C   0  0  0  0  0  0  0  0  0  0  0  0
    0.0000    0.0000    0.0000 N   0  0  0  0  0  0  0  0  0  0  0  0
    0.0000    0.0000    0.0000 C   0  0  0  0  0  0  0  0  0  0  0  0
    0.0000    0.0000    0.0000 C   0  0  0  0  0  0  0  0  0  0  0  0
    0.0000    0.0000    0.0000 N   0  0  0  0  0  0  0  0  0  0  0  0
    0.0000    0.0000    0.0000 C   0  0  0  0  0  0  0  0  0  0  0  0
    0.0000    0.0000    0.0000 C   0  0  0  0  0  0  0  0  0  0  0  0
    0.0000    0.0000    0.0000 C   0  0  0  0  0  0  0  0  0  0  0  0
    0.0000    0.0000    0.0000 N   0  0  0  0  0  0  0  0  0  0  0  0
    0.0000    0.0000    0.0000 S   0  0  0  0  0  0  0  0  0  0  0  0
    0.0000    0.0000    0.0000 C   0  0  0  0  0  0  0  0  0  0  0  0
    0.0000    0.0000    0.0000 C   0  0  0  0  0  0  0  0  0  0  0  0
    0.0000    0.0000    0.0000 C   0  0  0  0  0  0  0  0  0  0  0  0
    0.0000    0.0000    0.0000 C   0  0  0  0  0  0  0  0  0  0  0  0
    0.0000    0.0000    0.0000 C   0  0  0  0  0  0  0  0  0  0  0  0
    0.0000    0.0000    0.0000 C   0  0  0  0  0  0  0  0  0  0  0  0
    0.0000    0.0000    0.0000 C   0  0  0  0  0  0  0  0  0  0  0  0
    0.0000    0.0000    0.0000 C   0  0  0  0  0  0  0  0  0  0  0  0
    0.0000    0.0000    0.0000 C   0  0  0  0  0  0  0  0  0  0  0  0
    0.0000    0.0000    0.0000 F   0  0  0  0  0  0  0  0  0  0  0  0
  1  2  1  0
  2  3  1  0
  3  4  2  0
  3  5  1  0
  5  6  2  0
  6  7  1  0
  7  8  1  0
  8  9  1  0
  9 10  1  0
 10 11  1  0
 11 12  1  0
 12 13  1  0
 13 14  1  0
 14 15  1  0
 15 16  1  0
 16 17  1  0
 17 18  1  0
 16 19  1  0
 19 20  2  0
 20 21  1  0
 21 22  1  0
 22 23  2  0
 23 24  1  0
 24 25  2  0
 25 26  1  0
 26 27  2  0
  7 28  2  0
 28 29  1  0
 29 30  2  0
 30 31  1  0
 30  5  1  0
 18 13  1  0
 27 19  1  0
 27 22  1  0
M  END
>  <pIC50>  (460) 
7.92

>  <ChEMBL_ID>  (460) 
CHEMBL3805099

>  <document_journal>  (460) 
Bioorg. Med. Chem. Lett.

>  <bao_endpoint>  (460) 
BAO_0000190

>  <potential_duplicate>  (460) 
None

>  <uo_units>  (460) 
UO_0000065

>  <canonical_smiles>  (460) 
CNC(=O)c1cc(OCCCCN2CCN(CC2)c3nsc4ccccc34)ccc1F

>  <parent_molecule_chembl_id>  (460) 
CHEMBL3805099

>  <assay_type>  (460) 
B

>  <src_id>  (460) 
1

>  <ligand_efficiency>  (460) 
None

>  <standard_flag>  (460) 
True

>  <molecule_chembl_id>  (460) 
CHEMBL3805099

>  <target_organism>  (460) 
Homo sapiens

>  <standard_units>  (460) 
nM

>  <record_id>  (460) 
2776861

>  <document_chembl_id>  (460) 
CHEMBL3804825

>  <bao_format>  (460) 
None

>  <data_validity_description>  (460) 
None

>  <activity_id>  (460) 
16587986

>  <standard_type>  (460) 
IC50

>  <target_chembl_id>  (460) 
CHEMBL217

>  <data_validity_comment>  (460) 
None

>  <published_value>  (460) 
12

>  <document_year>  (460) 
2016

>  <target_pref_name>  (460) 
Dopamine D2 receptor

>  <assay_chembl_id>  (460) 
CHEMBL3806800

>  <standard_relation>  (460) 
=

>  <assay_description>  (460) 
Antagonistic activity at human dopamine D2 receptor measured after 60 mins by Ultra Lance cAMP assay

>  <published_relation>  (460) 
=

>  <standard_value>  (460) 
12

>  <qudt_units>  (460) 
http://www.openphacts.org/units/Nanomolar

>  <target_tax_id>  (460) 
9606

>  <bao_label>  (460) 
None

>  <published_units>  (460) 
nM

>  <pchembl_value>  (460) 
7.92

>  <published_type>  (460) 
IC50

>  <activity_comment>  (460) 
None

$$$$

     RDKit          

 30 33  0  0  0  0  0  0  0  0999 V2000
    0.0000    0.0000    0.0000 C   0  0  0  0  0  0  0  0  0  0  0  0
    0.0000    0.0000    0.0000 N   0  0  0  0  0  0  0  0  0  0  0  0
    0.0000    0.0000    0.0000 C   0  0  0  0  0  0  0  0  0  0  0  0
    0.0000    0.0000    0.0000 O   0  0  0  0  0  0  0  0  0  0  0  0
    0.0000    0.0000    0.0000 C   0  0  0  0  0  0  0  0  0  0  0  0
    0.0000    0.0000    0.0000 C   0  0  0  0  0  0  0  0  0  0  0  0
    0.0000    0.0000    0.0000 C   0  0  0  0  0  0  0  0  0  0  0  0
    0.0000    0.0000    0.0000 C   0  0  0  0  0  0  0  0  0  0  0  0
    0.0000    0.0000    0.0000 C   0  0  0  0  0  0  0  0  0  0  0  0
    0.0000    0.0000    0.0000 O   0  0  0  0  0  0  0  0  0  0  0  0
    0.0000    0.0000    0.0000 C   0  0  0  0  0  0  0  0  0  0  0  0
    0.0000    0.0000    0.0000 C   0  0  0  0  0  0  0  0  0  0  0  0
    0.0000    0.0000    0.0000 C   0  0  0  0  0  0  0  0  0  0  0  0
    0.0000    0.0000    0.0000 C   0  0  0  0  0  0  0  0  0  0  0  0
    0.0000    0.0000    0.0000 N   0  0  0  0  0  0  0  0  0  0  0  0
    0.0000    0.0000    0.0000 C   0  0  0  0  0  0  0  0  0  0  0  0
    0.0000    0.0000    0.0000 C   0  0  0  0  0  0  0  0  0  0  0  0
    0.0000    0.0000    0.0000 N   0  0  0  0  0  0  0  0  0  0  0  0
    0.0000    0.0000    0.0000 C   0  0  0  0  0  0  0  0  0  0  0  0
    0.0000    0.0000    0.0000 C   0  0  0  0  0  0  0  0  0  0  0  0
    0.0000    0.0000    0.0000 C   0  0  0  0  0  0  0  0  0  0  0  0
    0.0000    0.0000    0.0000 C   0  0  0  0  0  0  0  0  0  0  0  0
    0.0000    0.0000    0.0000 C   0  0  0  0  0  0  0  0  0  0  0  0
    0.0000    0.0000    0.0000 C   0  0  0  0  0  0  0  0  0  0  0  0
    0.0000    0.0000    0.0000 C   0  0  0  0  0  0  0  0  0  0  0  0
    0.0000    0.0000    0.0000 S   0  0  0  0  0  0  0  0  0  0  0  0
    0.0000    0.0000    0.0000 C   0  0  0  0  0  0  0  0  0  0  0  0
    0.0000    0.0000    0.0000 C   0  0  0  0  0  0  0  0  0  0  0  0
    0.0000    0.0000    0.0000 C   0  0  0  0  0  0  0  0  0  0  0  0
    0.0000    0.0000    0.0000 C   0  0  0  0  0  0  0  0  0  0  0  0
  1  2  1  0
  2  3  1  0
  3  4  2  0
  3  5  1  0
  5  6  2  0
  6  7  1  0
  7  8  2  0
  8  9  1  0
  9 10  1  0
 10 11  1  0
 11 12  1  0
 12 13  1  0
 13 14  1  0
 14 15  1  0
 15 16  1  0
 16 17  1  0
 17 18  1  0
 18 19  1  0
 19 20  1  0
 18 21  1  0
 21 22  2  0
 22 23  1  0
 23 24  2  0
 24 25  1  0
 25 26  1  0
 26 27  1  0
 27 28  2  0
 28 29  1  0
  9 30  2  0
 30  5  1  0
 20 15  1  0
 29 21  1  0
 29 25  2  0
M  END
>  <pIC50>  (461) 
7.04

>  <ChEMBL_ID>  (461) 
CHEMBL3805704

>  <document_journal>  (461) 
Bioorg. Med. Chem. Lett.

>  <bao_endpoint>  (461) 
BAO_0000190

>  <potential_duplicate>  (461) 
None

>  <uo_units>  (461) 
UO_0000065

>  <canonical_smiles>  (461) 
CNC(=O)c1cccc(OCCCCN2CCN(CC2)c3cccc4sccc34)c1

>  <parent_molecule_chembl_id>  (461) 
CHEMBL3805704

>  <assay_type>  (461) 
B

>  <src_id>  (461) 
1

>  <ligand_efficiency>  (461) 
None

>  <standard_flag>  (461) 
True

>  <molecule_chembl_id>  (461) 
CHEMBL3805704

>  <target_organism>  (461) 
Homo sapiens

>  <standard_units>  (461) 
nM

>  <record_id>  (461) 
2776862

>  <document_chembl_id>  (461) 
CHEMBL3804825

>  <bao_format>  (461) 
None

>  <data_validity_description>  (461) 
None

>  <activity_id>  (461) 
16587991

>  <standard_type>  (461) 
IC50

>  <target_chembl_id>  (461) 
CHEMBL217

>  <data_validity_comment>  (461) 
None

>  <published_value>  (461) 
91

>  <document_year>  (461) 
2016

>  <target_pref_name>  (461) 
Dopamine D2 receptor

>  <assay_chembl_id>  (461) 
CHEMBL3806800

>  <standard_relation>  (461) 
=

>  <assay_description>  (461) 
Antagonistic activity at human dopamine D2 receptor measured after 60 mins by Ultra Lance cAMP assay

>  <published_relation>  (461) 
=

>  <standard_value>  (461) 
91

>  <qudt_units>  (461) 
http://www.openphacts.org/units/Nanomolar

>  <target_tax_id>  (461) 
9606

>  <bao_label>  (461) 
None

>  <published_units>  (461) 
nM

>  <pchembl_value>  (461) 
7.04

>  <published_type>  (461) 
IC50

>  <activity_comment>  (461) 
None

$$$$

     RDKit          

 31 34  0  0  0  0  0  0  0  0999 V2000
    0.0000    0.0000    0.0000 C   0  0  0  0  0  0  0  0  0  0  0  0
    0.0000    0.0000    0.0000 N   0  0  0  0  0  0  0  0  0  0  0  0
    0.0000    0.0000    0.0000 C   0  0  0  0  0  0  0  0  0  0  0  0
    0.0000    0.0000    0.0000 O   0  0  0  0  0  0  0  0  0  0  0  0
    0.0000    0.0000    0.0000 C   0  0  0  0  0  0  0  0  0  0  0  0
    0.0000    0.0000    0.0000 C   0  0  0  0  0  0  0  0  0  0  0  0
    0.0000    0.0000    0.0000 C   0  0  0  0  0  0  0  0  0  0  0  0
    0.0000    0.0000    0.0000 O   0  0  0  0  0  0  0  0  0  0  0  0
    0.0000    0.0000    0.0000 C   0  0  0  0  0  0  0  0  0  0  0  0
    0.0000    0.0000    0.0000 C   0  0  0  0  0  0  0  0  0  0  0  0
    0.0000    0.0000    0.0000 C   0  0  0  0  0  0  0  0  0  0  0  0
    0.0000    0.0000    0.0000 C   0  0  0  0  0  0  0  0  0  0  0  0
    0.0000    0.0000    0.0000 N   0  0  0  0  0  0  0  0  0  0  0  0
    0.0000    0.0000    0.0000 C   0  0  0  0  0  0  0  0  0  0  0  0
    0.0000    0.0000    0.0000 C   0  0  0  0  0  0  0  0  0  0  0  0
    0.0000    0.0000    0.0000 N   0  0  0  0  0  0  0  0  0  0  0  0
    0.0000    0.0000    0.0000 C   0  0  0  0  0  0  0  0  0  0  0  0
    0.0000    0.0000    0.0000 C   0  0  0  0  0  0  0  0  0  0  0  0
    0.0000    0.0000    0.0000 C   0  0  0  0  0  0  0  0  0  0  0  0
    0.0000    0.0000    0.0000 C   0  0  0  0  0  0  0  0  0  0  0  0
    0.0000    0.0000    0.0000 C   0  0  0  0  0  0  0  0  0  0  0  0
    0.0000    0.0000    0.0000 C   0  0  0  0  0  0  0  0  0  0  0  0
    0.0000    0.0000    0.0000 C   0  0  0  0  0  0  0  0  0  0  0  0
    0.0000    0.0000    0.0000 S   0  0  0  0  0  0  0  0  0  0  0  0
    0.0000    0.0000    0.0000 C   0  0  0  0  0  0  0  0  0  0  0  0
    0.0000    0.0000    0.0000 C   0  0  0  0  0  0  0  0  0  0  0  0
    0.0000    0.0000    0.0000 C   0  0  0  0  0  0  0  0  0  0  0  0
    0.0000    0.0000    0.0000 C   0  0  0  0  0  0  0  0  0  0  0  0
    0.0000    0.0000    0.0000 C   0  0  0  0  0  0  0  0  0  0  0  0
    0.0000    0.0000    0.0000 C   0  0  0  0  0  0  0  0  0  0  0  0
    0.0000    0.0000    0.0000 F   0  0  0  0  0  0  0  0  0  0  0  0
  1  2  1  0
  2  3  1  0
  3  4  2  0
  3  5  1  0
  5  6  2  0
  6  7  1  0
  7  8  1  0
  8  9  1  0
  9 10  1  0
 10 11  1  0
 11 12  1  0
 12 13  1  0
 13 14  1  0
 14 15  1  0
 15 16  1  0
 16 17  1  0
 17 18  1  0
 16 19  1  0
 19 20  2  0
 20 21  1  0
 21 22  2  0
 22 23  1  0
 23 24  1  0
 24 25  1  0
 25 26  2  0
 26 27  1  0
  7 28  2  0
 28 29  1  0
 29 30  2  0
 30 31  1  0
 30  5  1  0
 18 13  1  0
 27 19  1  0
 27 23  2  0
M  END
>  <pIC50>  (462) 
7.37

>  <ChEMBL_ID>  (462) 
CHEMBL3805649

>  <document_journal>  (462) 
Bioorg. Med. Chem. Lett.

>  <bao_endpoint>  (462) 
BAO_0000190

>  <potential_duplicate>  (462) 
None

>  <uo_units>  (462) 
UO_0000065

>  <canonical_smiles>  (462) 
CNC(=O)c1cc(OCCCCN2CCN(CC2)c3cccc4sccc34)ccc1F

>  <parent_molecule_chembl_id>  (462) 
CHEMBL3805649

>  <assay_type>  (462) 
B

>  <src_id>  (462) 
1

>  <ligand_efficiency>  (462) 
None

>  <standard_flag>  (462) 
True

>  <molecule_chembl_id>  (462) 
CHEMBL3805649

>  <target_organism>  (462) 
Homo sapiens

>  <standard_units>  (462) 
nM

>  <record_id>  (462) 
2776863

>  <document_chembl_id>  (462) 
CHEMBL3804825

>  <bao_format>  (462) 
None

>  <data_validity_description>  (462) 
None

>  <activity_id>  (462) 
16587994

>  <standard_type>  (462) 
IC50

>  <target_chembl_id>  (462) 
CHEMBL217

>  <data_validity_comment>  (462) 
None

>  <published_value>  (462) 
43

>  <document_year>  (462) 
2016

>  <target_pref_name>  (462) 
Dopamine D2 receptor

>  <assay_chembl_id>  (462) 
CHEMBL3806800

>  <standard_relation>  (462) 
=

>  <assay_description>  (462) 
Antagonistic activity at human dopamine D2 receptor measured after 60 mins by Ultra Lance cAMP assay

>  <published_relation>  (462) 
=

>  <standard_value>  (462) 
43

>  <qudt_units>  (462) 
http://www.openphacts.org/units/Nanomolar

>  <target_tax_id>  (462) 
9606

>  <bao_label>  (462) 
None

>  <published_units>  (462) 
nM

>  <pchembl_value>  (462) 
7.37

>  <published_type>  (462) 
IC50

>  <activity_comment>  (462) 
None

$$$$

     RDKit          

 32 35  0  0  0  0  0  0  0  0999 V2000
    0.0000    0.0000    0.0000 C   0  0  0  0  0  0  0  0  0  0  0  0
    0.0000    0.0000    0.0000 N   0  0  0  0  0  0  0  0  0  0  0  0
    0.0000    0.0000    0.0000 C   0  0  0  0  0  0  0  0  0  0  0  0
    0.0000    0.0000    0.0000 O   0  0  0  0  0  0  0  0  0  0  0  0
    0.0000    0.0000    0.0000 C   0  0  0  0  0  0  0  0  0  0  0  0
    0.0000    0.0000    0.0000 C   0  0  0  0  0  0  0  0  0  0  0  0
    0.0000    0.0000    0.0000 C   0  0  0  0  0  0  0  0  0  0  0  0
    0.0000    0.0000    0.0000 C   0  0  0  0  0  0  0  0  0  0  0  0
    0.0000    0.0000    0.0000 C   0  0  0  0  0  0  0  0  0  0  0  0
    0.0000    0.0000    0.0000 O   0  0  0  0  0  0  0  0  0  0  0  0
    0.0000    0.0000    0.0000 C   0  0  0  0  0  0  0  0  0  0  0  0
    0.0000    0.0000    0.0000 C   0  0  0  0  0  0  0  0  0  0  0  0
    0.0000    0.0000    0.0000 C   0  0  0  0  0  0  0  0  0  0  0  0
    0.0000    0.0000    0.0000 C   0  0  0  0  0  0  0  0  0  0  0  0
    0.0000    0.0000    0.0000 N   0  0  0  0  0  0  0  0  0  0  0  0
    0.0000    0.0000    0.0000 C   0  0  0  0  0  0  0  0  0  0  0  0
    0.0000    0.0000    0.0000 C   0  0  0  0  0  0  0  0  0  0  0  0
    0.0000    0.0000    0.0000 N   0  0  0  0  0  0  0  0  0  0  0  0
    0.0000    0.0000    0.0000 C   0  0  0  0  0  0  0  0  0  0  0  0
    0.0000    0.0000    0.0000 C   0  0  0  0  0  0  0  0  0  0  0  0
    0.0000    0.0000    0.0000 C   0  0  0  0  0  0  0  0  0  0  0  0
    0.0000    0.0000    0.0000 C   0  0  0  0  0  0  0  0  0  0  0  0
    0.0000    0.0000    0.0000 C   0  0  0  0  0  0  0  0  0  0  0  0
    0.0000    0.0000    0.0000 C   0  0  0  0  0  0  0  0  0  0  0  0
    0.0000    0.0000    0.0000 C   0  0  0  0  0  0  0  0  0  0  0  0
    0.0000    0.0000    0.0000 O   0  0  0  0  0  0  0  0  0  0  0  0
    0.0000    0.0000    0.0000 C   0  0  0  0  0  0  0  0  0  0  0  0
    0.0000    0.0000    0.0000 F   0  0  0  0  0  0  0  0  0  0  0  0
    0.0000    0.0000    0.0000 F   0  0  0  0  0  0  0  0  0  0  0  0
    0.0000    0.0000    0.0000 O   0  0  0  0  0  0  0  0  0  0  0  0
    0.0000    0.0000    0.0000 C   0  0  0  0  0  0  0  0  0  0  0  0
    0.0000    0.0000    0.0000 C   0  0  0  0  0  0  0  0  0  0  0  0
  1  2  1  0
  2  3  1  0
  3  4  2  0
  3  5  1  0
  5  6  2  0
  6  7  1  0
  7  8  2  0
  8  9  1  0
  9 10  1  0
 10 11  1  0
 11 12  1  0
 12 13  1  0
 13 14  1  0
 14 15  1  0
 15 16  1  0
 16 17  1  0
 17 18  1  0
 18 19  1  0
 19 20  1  0
 18 21  1  0
 21 22  2  0
 22 23  1  0
 23 24  2  0
 24 25  1  0
 25 26  1  0
 26 27  1  0
 27 28  1  0
 27 29  1  0
 27 30  1  0
 30 31  1  0
  9 32  2  0
 32  5  1  0
 20 15  1  0
 31 21  1  0
 31 25  2  0
M  END
>  <pIC50>  (463) 
8.39

>  <ChEMBL_ID>  (463) 
CHEMBL3805165

>  <document_journal>  (463) 
Bioorg. Med. Chem. Lett.

>  <bao_endpoint>  (463) 
BAO_0000190

>  <potential_duplicate>  (463) 
None

>  <uo_units>  (463) 
UO_0000065

>  <canonical_smiles>  (463) 
CNC(=O)c1cccc(OCCCCN2CCN(CC2)c3cccc4OC(F)(F)Oc34)c1

>  <parent_molecule_chembl_id>  (463) 
CHEMBL3805165

>  <assay_type>  (463) 
B

>  <src_id>  (463) 
1

>  <ligand_efficiency>  (463) 
None

>  <standard_flag>  (463) 
True

>  <molecule_chembl_id>  (463) 
CHEMBL3805165

>  <target_organism>  (463) 
Homo sapiens

>  <standard_units>  (463) 
nM

>  <record_id>  (463) 
2776864

>  <document_chembl_id>  (463) 
CHEMBL3804825

>  <bao_format>  (463) 
None

>  <data_validity_description>  (463) 
None

>  <activity_id>  (463) 
16587999

>  <standard_type>  (463) 
IC50

>  <target_chembl_id>  (463) 
CHEMBL217

>  <data_validity_comment>  (463) 
None

>  <published_value>  (463) 
4.1

>  <document_year>  (463) 
2016

>  <target_pref_name>  (463) 
Dopamine D2 receptor

>  <assay_chembl_id>  (463) 
CHEMBL3806800

>  <standard_relation>  (463) 
=

>  <assay_description>  (463) 
Antagonistic activity at human dopamine D2 receptor measured after 60 mins by Ultra Lance cAMP assay

>  <published_relation>  (463) 
=

>  <standard_value>  (463) 
4.1

>  <qudt_units>  (463) 
http://www.openphacts.org/units/Nanomolar

>  <target_tax_id>  (463) 
9606

>  <bao_label>  (463) 
None

>  <published_units>  (463) 
nM

>  <pchembl_value>  (463) 
8.39

>  <published_type>  (463) 
IC50

>  <activity_comment>  (463) 
None

$$$$

     RDKit          

 33 36  0  0  0  0  0  0  0  0999 V2000
    0.0000    0.0000    0.0000 C   0  0  0  0  0  0  0  0  0  0  0  0
    0.0000    0.0000    0.0000 N   0  0  0  0  0  0  0  0  0  0  0  0
    0.0000    0.0000    0.0000 C   0  0  0  0  0  0  0  0  0  0  0  0
    0.0000    0.0000    0.0000 O   0  0  0  0  0  0  0  0  0  0  0  0
    0.0000    0.0000    0.0000 C   0  0  0  0  0  0  0  0  0  0  0  0
    0.0000    0.0000    0.0000 C   0  0  0  0  0  0  0  0  0  0  0  0
    0.0000    0.0000    0.0000 C   0  0  0  0  0  0  0  0  0  0  0  0
    0.0000    0.0000    0.0000 O   0  0  0  0  0  0  0  0  0  0  0  0
    0.0000    0.0000    0.0000 C   0  0  0  0  0  0  0  0  0  0  0  0
    0.0000    0.0000    0.0000 C   0  0  0  0  0  0  0  0  0  0  0  0
    0.0000    0.0000    0.0000 C   0  0  0  0  0  0  0  0  0  0  0  0
    0.0000    0.0000    0.0000 C   0  0  0  0  0  0  0  0  0  0  0  0
    0.0000    0.0000    0.0000 N   0  0  0  0  0  0  0  0  0  0  0  0
    0.0000    0.0000    0.0000 C   0  0  0  0  0  0  0  0  0  0  0  0
    0.0000    0.0000    0.0000 C   0  0  0  0  0  0  0  0  0  0  0  0
    0.0000    0.0000    0.0000 N   0  0  0  0  0  0  0  0  0  0  0  0
    0.0000    0.0000    0.0000 C   0  0  0  0  0  0  0  0  0  0  0  0
    0.0000    0.0000    0.0000 C   0  0  0  0  0  0  0  0  0  0  0  0
    0.0000    0.0000    0.0000 C   0  0  0  0  0  0  0  0  0  0  0  0
    0.0000    0.0000    0.0000 C   0  0  0  0  0  0  0  0  0  0  0  0
    0.0000    0.0000    0.0000 C   0  0  0  0  0  0  0  0  0  0  0  0
    0.0000    0.0000    0.0000 C   0  0  0  0  0  0  0  0  0  0  0  0
    0.0000    0.0000    0.0000 C   0  0  0  0  0  0  0  0  0  0  0  0
    0.0000    0.0000    0.0000 O   0  0  0  0  0  0  0  0  0  0  0  0
    0.0000    0.0000    0.0000 C   0  0  0  0  0  0  0  0  0  0  0  0
    0.0000    0.0000    0.0000 F   0  0  0  0  0  0  0  0  0  0  0  0
    0.0000    0.0000    0.0000 F   0  0  0  0  0  0  0  0  0  0  0  0
    0.0000    0.0000    0.0000 O   0  0  0  0  0  0  0  0  0  0  0  0
    0.0000    0.0000    0.0000 C   0  0  0  0  0  0  0  0  0  0  0  0
    0.0000    0.0000    0.0000 C   0  0  0  0  0  0  0  0  0  0  0  0
    0.0000    0.0000    0.0000 C   0  0  0  0  0  0  0  0  0  0  0  0
    0.0000    0.0000    0.0000 C   0  0  0  0  0  0  0  0  0  0  0  0
    0.0000    0.0000    0.0000 F   0  0  0  0  0  0  0  0  0  0  0  0
  1  2  1  0
  2  3  1  0
  3  4  2  0
  3  5  1  0
  5  6  2  0
  6  7  1  0
  7  8  1  0
  8  9  1  0
  9 10  1  0
 10 11  1  0
 11 12  1  0
 12 13  1  0
 13 14  1  0
 14 15  1  0
 15 16  1  0
 16 17  1  0
 17 18  1  0
 16 19  1  0
 19 20  2  0
 20 21  1  0
 21 22  2  0
 22 23  1  0
 23 24  1  0
 24 25  1  0
 25 26  1  0
 25 27  1  0
 25 28  1  0
 28 29  1  0
  7 30  2  0
 30 31  1  0
 31 32  2  0
 32 33  1  0
 32  5  1  0
 18 13  1  0
 29 19  1  0
 29 23  2  0
M  END
>  <pIC50>  (464) 
7.52

>  <ChEMBL_ID>  (464) 
CHEMBL3804965

>  <document_journal>  (464) 
Bioorg. Med. Chem. Lett.

>  <bao_endpoint>  (464) 
BAO_0000190

>  <potential_duplicate>  (464) 
None

>  <uo_units>  (464) 
UO_0000065

>  <canonical_smiles>  (464) 
CNC(=O)c1cc(OCCCCN2CCN(CC2)c3cccc4OC(F)(F)Oc34)ccc1F

>  <parent_molecule_chembl_id>  (464) 
CHEMBL3804965

>  <assay_type>  (464) 
B

>  <src_id>  (464) 
1

>  <ligand_efficiency>  (464) 
None

>  <standard_flag>  (464) 
True

>  <molecule_chembl_id>  (464) 
CHEMBL3804965

>  <target_organism>  (464) 
Homo sapiens

>  <standard_units>  (464) 
nM

>  <record_id>  (464) 
2776865

>  <document_chembl_id>  (464) 
CHEMBL3804825

>  <bao_format>  (464) 
None

>  <data_validity_description>  (464) 
None

>  <activity_id>  (464) 
16588002

>  <standard_type>  (464) 
IC50

>  <target_chembl_id>  (464) 
CHEMBL217

>  <data_validity_comment>  (464) 
None

>  <published_value>  (464) 
30

>  <document_year>  (464) 
2016

>  <target_pref_name>  (464) 
Dopamine D2 receptor

>  <assay_chembl_id>  (464) 
CHEMBL3806800

>  <standard_relation>  (464) 
=

>  <assay_description>  (464) 
Antagonistic activity at human dopamine D2 receptor measured after 60 mins by Ultra Lance cAMP assay

>  <published_relation>  (464) 
=

>  <standard_value>  (464) 
30

>  <qudt_units>  (464) 
http://www.openphacts.org/units/Nanomolar

>  <target_tax_id>  (464) 
9606

>  <bao_label>  (464) 
None

>  <published_units>  (464) 
nM

>  <pchembl_value>  (464) 
7.52

>  <published_type>  (464) 
IC50

>  <activity_comment>  (464) 
None

$$$$

     RDKit          

 29 31  0  0  0  0  0  0  0  0999 V2000
    0.0000    0.0000    0.0000 C   0  0  0  0  0  0  0  0  0  0  0  0
    0.0000    0.0000    0.0000 N   0  0  0  0  0  0  0  0  0  0  0  0
    0.0000    0.0000    0.0000 C   0  0  0  0  0  0  0  0  0  0  0  0
    0.0000    0.0000    0.0000 O   0  0  0  0  0  0  0  0  0  0  0  0
    0.0000    0.0000    0.0000 C   0  0  0  0  0  0  0  0  0  0  0  0
    0.0000    0.0000    0.0000 C   0  0  0  0  0  0  0  0  0  0  0  0
    0.0000    0.0000    0.0000 C   0  0  0  0  0  0  0  0  0  0  0  0
    0.0000    0.0000    0.0000 C   0  0  0  0  0  0  0  0  0  0  0  0
    0.0000    0.0000    0.0000 C   0  0  0  0  0  0  0  0  0  0  0  0
    0.0000    0.0000    0.0000 O   0  0  0  0  0  0  0  0  0  0  0  0
    0.0000    0.0000    0.0000 C   0  0  0  0  0  0  0  0  0  0  0  0
    0.0000    0.0000    0.0000 C   0  0  0  0  0  0  0  0  0  0  0  0
    0.0000    0.0000    0.0000 C   0  0  0  0  0  0  0  0  0  0  0  0
    0.0000    0.0000    0.0000 C   0  0  0  0  0  0  0  0  0  0  0  0
    0.0000    0.0000    0.0000 N   0  0  0  0  0  0  0  0  0  0  0  0
    0.0000    0.0000    0.0000 C   0  0  0  0  0  0  0  0  0  0  0  0
    0.0000    0.0000    0.0000 C   0  0  0  0  0  0  0  0  0  0  0  0
    0.0000    0.0000    0.0000 N   0  0  0  0  0  0  0  0  0  0  0  0
    0.0000    0.0000    0.0000 C   0  0  0  0  0  0  0  0  0  0  0  0
    0.0000    0.0000    0.0000 C   0  0  0  0  0  0  0  0  0  0  0  0
    0.0000    0.0000    0.0000 C   0  0  0  0  0  0  0  0  0  0  0  0
    0.0000    0.0000    0.0000 C   0  0  0  0  0  0  0  0  0  0  0  0
    0.0000    0.0000    0.0000 C   0  0  0  0  0  0  0  0  0  0  0  0
    0.0000    0.0000    0.0000 C   0  0  0  0  0  0  0  0  0  0  0  0
    0.0000    0.0000    0.0000 C   0  0  0  0  0  0  0  0  0  0  0  0
    0.0000    0.0000    0.0000 Cl  0  0  0  0  0  0  0  0  0  0  0  0
    0.0000    0.0000    0.0000 C   0  0  0  0  0  0  0  0  0  0  0  0
    0.0000    0.0000    0.0000 Cl  0  0  0  0  0  0  0  0  0  0  0  0
    0.0000    0.0000    0.0000 C   0  0  0  0  0  0  0  0  0  0  0  0
  1  2  1  0
  2  3  1  0
  3  4  2  0
  3  5  1  0
  5  6  2  0
  6  7  1  0
  7  8  2  0
  8  9  1  0
  9 10  1  0
 10 11  1  0
 11 12  1  0
 12 13  1  0
 13 14  1  0
 14 15  1  0
 15 16  1  0
 16 17  1  0
 17 18  1  0
 18 19  1  0
 19 20  1  0
 18 21  1  0
 21 22  2  0
 22 23  1  0
 23 24  2  0
 24 25  1  0
 25 26  1  0
 25 27  2  0
 27 28  1  0
  9 29  2  0
 29  5  1  0
 20 15  1  0
 27 21  1  0
M  END
>  <pIC50>  (465) 
7.5

>  <ChEMBL_ID>  (465) 
CHEMBL3805077

>  <document_journal>  (465) 
Bioorg. Med. Chem. Lett.

>  <bao_endpoint>  (465) 
BAO_0000190

>  <potential_duplicate>  (465) 
None

>  <uo_units>  (465) 
UO_0000065

>  <canonical_smiles>  (465) 
CNC(=O)c1cccc(OCCCCN2CCN(CC2)c3cccc(Cl)c3Cl)c1

>  <parent_molecule_chembl_id>  (465) 
CHEMBL3805077

>  <assay_type>  (465) 
B

>  <src_id>  (465) 
1

>  <ligand_efficiency>  (465) 
None

>  <standard_flag>  (465) 
True

>  <molecule_chembl_id>  (465) 
CHEMBL3805077

>  <target_organism>  (465) 
Homo sapiens

>  <standard_units>  (465) 
nM

>  <record_id>  (465) 
2776711

>  <document_chembl_id>  (465) 
CHEMBL3804825

>  <bao_format>  (465) 
None

>  <data_validity_description>  (465) 
None

>  <activity_id>  (465) 
16588005

>  <standard_type>  (465) 
IC50

>  <target_chembl_id>  (465) 
CHEMBL217

>  <data_validity_comment>  (465) 
None

>  <published_value>  (465) 
32

>  <document_year>  (465) 
2016

>  <target_pref_name>  (465) 
Dopamine D2 receptor

>  <assay_chembl_id>  (465) 
CHEMBL3806800

>  <standard_relation>  (465) 
=

>  <assay_description>  (465) 
Antagonistic activity at human dopamine D2 receptor measured after 60 mins by Ultra Lance cAMP assay

>  <published_relation>  (465) 
=

>  <standard_value>  (465) 
32

>  <qudt_units>  (465) 
http://www.openphacts.org/units/Nanomolar

>  <target_tax_id>  (465) 
9606

>  <bao_label>  (465) 
None

>  <published_units>  (465) 
nM

>  <pchembl_value>  (465) 
7.5

>  <published_type>  (465) 
IC50

>  <activity_comment>  (465) 
None

$$$$

     RDKit          

 28 30  0  0  0  0  0  0  0  0999 V2000
    0.0000    0.0000    0.0000 N   0  0  0  0  0  0  0  0  0  0  0  0
    0.0000    0.0000    0.0000 C   0  0  0  0  0  0  0  0  0  0  0  0
    0.0000    0.0000    0.0000 O   0  0  0  0  0  0  0  0  0  0  0  0
    0.0000    0.0000    0.0000 C   0  0  0  0  0  0  0  0  0  0  0  0
    0.0000    0.0000    0.0000 C   0  0  0  0  0  0  0  0  0  0  0  0
    0.0000    0.0000    0.0000 C   0  0  0  0  0  0  0  0  0  0  0  0
    0.0000    0.0000    0.0000 C   0  0  0  0  0  0  0  0  0  0  0  0
    0.0000    0.0000    0.0000 C   0  0  0  0  0  0  0  0  0  0  0  0
    0.0000    0.0000    0.0000 O   0  0  0  0  0  0  0  0  0  0  0  0
    0.0000    0.0000    0.0000 C   0  0  0  0  0  0  0  0  0  0  0  0
    0.0000    0.0000    0.0000 C   0  0  0  0  0  0  0  0  0  0  0  0
    0.0000    0.0000    0.0000 C   0  0  0  0  0  0  0  0  0  0  0  0
    0.0000    0.0000    0.0000 C   0  0  0  0  0  0  0  0  0  0  0  0
    0.0000    0.0000    0.0000 N   0  0  0  0  0  0  0  0  0  0  0  0
    0.0000    0.0000    0.0000 C   0  0  0  0  0  0  0  0  0  0  0  0
    0.0000    0.0000    0.0000 C   0  0  0  0  0  0  0  0  0  0  0  0
    0.0000    0.0000    0.0000 N   0  0  0  0  0  0  0  0  0  0  0  0
    0.0000    0.0000    0.0000 C   0  0  0  0  0  0  0  0  0  0  0  0
    0.0000    0.0000    0.0000 C   0  0  0  0  0  0  0  0  0  0  0  0
    0.0000    0.0000    0.0000 C   0  0  0  0  0  0  0  0  0  0  0  0
    0.0000    0.0000    0.0000 C   0  0  0  0  0  0  0  0  0  0  0  0
    0.0000    0.0000    0.0000 C   0  0  0  0  0  0  0  0  0  0  0  0
    0.0000    0.0000    0.0000 C   0  0  0  0  0  0  0  0  0  0  0  0
    0.0000    0.0000    0.0000 C   0  0  0  0  0  0  0  0  0  0  0  0
    0.0000    0.0000    0.0000 Cl  0  0  0  0  0  0  0  0  0  0  0  0
    0.0000    0.0000    0.0000 C   0  0  0  0  0  0  0  0  0  0  0  0
    0.0000    0.0000    0.0000 Cl  0  0  0  0  0  0  0  0  0  0  0  0
    0.0000    0.0000    0.0000 C   0  0  0  0  0  0  0  0  0  0  0  0
  1  2  1  0
  2  3  2  0
  2  4  1  0
  4  5  2  0
  5  6  1  0
  6  7  2  0
  7  8  1  0
  8  9  1  0
  9 10  1  0
 10 11  1  0
 11 12  1  0
 12 13  1  0
 13 14  1  0
 14 15  1  0
 15 16  1  0
 16 17  1  0
 17 18  1  0
 18 19  1  0
 17 20  1  0
 20 21  2  0
 21 22  1  0
 22 23  2  0
 23 24  1  0
 24 25  1  0
 24 26  2  0
 26 27  1  0
  8 28  2  0
 28  4  1  0
 19 14  1  0
 26 20  1  0
M  END
>  <pIC50>  (466) 
7.26

>  <ChEMBL_ID>  (466) 
CHEMBL3806169

>  <document_journal>  (466) 
Bioorg. Med. Chem. Lett.

>  <bao_endpoint>  (466) 
BAO_0000190

>  <potential_duplicate>  (466) 
None

>  <uo_units>  (466) 
UO_0000065

>  <canonical_smiles>  (466) 
NC(=O)c1cccc(OCCCCN2CCN(CC2)c3cccc(Cl)c3Cl)c1

>  <parent_molecule_chembl_id>  (466) 
CHEMBL3806169

>  <assay_type>  (466) 
B

>  <src_id>  (466) 
1

>  <ligand_efficiency>  (466) 
None

>  <standard_flag>  (466) 
True

>  <molecule_chembl_id>  (466) 
CHEMBL3806169

>  <target_organism>  (466) 
Homo sapiens

>  <standard_units>  (466) 
nM

>  <record_id>  (466) 
2776712

>  <document_chembl_id>  (466) 
CHEMBL3804825

>  <bao_format>  (466) 
None

>  <data_validity_description>  (466) 
None

>  <activity_id>  (466) 
16588008

>  <standard_type>  (466) 
IC50

>  <target_chembl_id>  (466) 
CHEMBL217

>  <data_validity_comment>  (466) 
None

>  <published_value>  (466) 
55

>  <document_year>  (466) 
2016

>  <target_pref_name>  (466) 
Dopamine D2 receptor

>  <assay_chembl_id>  (466) 
CHEMBL3806800

>  <standard_relation>  (466) 
=

>  <assay_description>  (466) 
Antagonistic activity at human dopamine D2 receptor measured after 60 mins by Ultra Lance cAMP assay

>  <published_relation>  (466) 
=

>  <standard_value>  (466) 
55

>  <qudt_units>  (466) 
http://www.openphacts.org/units/Nanomolar

>  <target_tax_id>  (466) 
9606

>  <bao_label>  (466) 
None

>  <published_units>  (466) 
nM

>  <pchembl_value>  (466) 
7.26

>  <published_type>  (466) 
IC50

>  <activity_comment>  (466) 
None

$$$$

     RDKit          

 30 32  0  0  0  0  0  0  0  0999 V2000
    0.0000    0.0000    0.0000 C   0  0  0  0  0  0  0  0  0  0  0  0
    0.0000    0.0000    0.0000 C   0  0  0  0  0  0  0  0  0  0  0  0
    0.0000    0.0000    0.0000 N   0  0  0  0  0  0  0  0  0  0  0  0
    0.0000    0.0000    0.0000 C   0  0  0  0  0  0  0  0  0  0  0  0
    0.0000    0.0000    0.0000 O   0  0  0  0  0  0  0  0  0  0  0  0
    0.0000    0.0000    0.0000 C   0  0  0  0  0  0  0  0  0  0  0  0
    0.0000    0.0000    0.0000 C   0  0  0  0  0  0  0  0  0  0  0  0
    0.0000    0.0000    0.0000 C   0  0  0  0  0  0  0  0  0  0  0  0
    0.0000    0.0000    0.0000 C   0  0  0  0  0  0  0  0  0  0  0  0
    0.0000    0.0000    0.0000 C   0  0  0  0  0  0  0  0  0  0  0  0
    0.0000    0.0000    0.0000 O   0  0  0  0  0  0  0  0  0  0  0  0
    0.0000    0.0000    0.0000 C   0  0  0  0  0  0  0  0  0  0  0  0
    0.0000    0.0000    0.0000 C   0  0  0  0  0  0  0  0  0  0  0  0
    0.0000    0.0000    0.0000 C   0  0  0  0  0  0  0  0  0  0  0  0
    0.0000    0.0000    0.0000 C   0  0  0  0  0  0  0  0  0  0  0  0
    0.0000    0.0000    0.0000 N   0  0  0  0  0  0  0  0  0  0  0  0
    0.0000    0.0000    0.0000 C   0  0  0  0  0  0  0  0  0  0  0  0
    0.0000    0.0000    0.0000 C   0  0  0  0  0  0  0  0  0  0  0  0
    0.0000    0.0000    0.0000 N   0  0  0  0  0  0  0  0  0  0  0  0
    0.0000    0.0000    0.0000 C   0  0  0  0  0  0  0  0  0  0  0  0
    0.0000    0.0000    0.0000 C   0  0  0  0  0  0  0  0  0  0  0  0
    0.0000    0.0000    0.0000 C   0  0  0  0  0  0  0  0  0  0  0  0
    0.0000    0.0000    0.0000 C   0  0  0  0  0  0  0  0  0  0  0  0
    0.0000    0.0000    0.0000 C   0  0  0  0  0  0  0  0  0  0  0  0
    0.0000    0.0000    0.0000 C   0  0  0  0  0  0  0  0  0  0  0  0
    0.0000    0.0000    0.0000 C   0  0  0  0  0  0  0  0  0  0  0  0
    0.0000    0.0000    0.0000 Cl  0  0  0  0  0  0  0  0  0  0  0  0
    0.0000    0.0000    0.0000 C   0  0  0  0  0  0  0  0  0  0  0  0
    0.0000    0.0000    0.0000 Cl  0  0  0  0  0  0  0  0  0  0  0  0
    0.0000    0.0000    0.0000 C   0  0  0  0  0  0  0  0  0  0  0  0
  1  2  1  0
  2  3  1  0
  3  4  1  0
  4  5  2  0
  4  6  1  0
  6  7  2  0
  7  8  1  0
  8  9  2  0
  9 10  1  0
 10 11  1  0
 11 12  1  0
 12 13  1  0
 13 14  1  0
 14 15  1  0
 15 16  1  0
 16 17  1  0
 17 18  1  0
 18 19  1  0
 19 20  1  0
 20 21  1  0
 19 22  1  0
 22 23  2  0
 23 24  1  0
 24 25  2  0
 25 26  1  0
 26 27  1  0
 26 28  2  0
 28 29  1  0
 10 30  2  0
 30  6  1  0
 21 16  1  0
 28 22  1  0
M  END
>  <pIC50>  (467) 
6.94

>  <ChEMBL_ID>  (467) 
CHEMBL3805772

>  <document_journal>  (467) 
Bioorg. Med. Chem. Lett.

>  <bao_endpoint>  (467) 
BAO_0000190

>  <potential_duplicate>  (467) 
None

>  <uo_units>  (467) 
UO_0000065

>  <canonical_smiles>  (467) 
CCNC(=O)c1cccc(OCCCCN2CCN(CC2)c3cccc(Cl)c3Cl)c1

>  <parent_molecule_chembl_id>  (467) 
CHEMBL3805772

>  <assay_type>  (467) 
B

>  <src_id>  (467) 
1

>  <ligand_efficiency>  (467) 
None

>  <standard_flag>  (467) 
True

>  <molecule_chembl_id>  (467) 
CHEMBL3805772

>  <target_organism>  (467) 
Homo sapiens

>  <standard_units>  (467) 
nM

>  <record_id>  (467) 
2776713

>  <document_chembl_id>  (467) 
CHEMBL3804825

>  <bao_format>  (467) 
None

>  <data_validity_description>  (467) 
None

>  <activity_id>  (467) 
16588011

>  <standard_type>  (467) 
IC50

>  <target_chembl_id>  (467) 
CHEMBL217

>  <data_validity_comment>  (467) 
None

>  <published_value>  (467) 
116

>  <document_year>  (467) 
2016

>  <target_pref_name>  (467) 
Dopamine D2 receptor

>  <assay_chembl_id>  (467) 
CHEMBL3806800

>  <standard_relation>  (467) 
=

>  <assay_description>  (467) 
Antagonistic activity at human dopamine D2 receptor measured after 60 mins by Ultra Lance cAMP assay

>  <published_relation>  (467) 
=

>  <standard_value>  (467) 
116

>  <qudt_units>  (467) 
http://www.openphacts.org/units/Nanomolar

>  <target_tax_id>  (467) 
9606

>  <bao_label>  (467) 
None

>  <published_units>  (467) 
nM

>  <pchembl_value>  (467) 
6.94

>  <published_type>  (467) 
IC50

>  <activity_comment>  (467) 
None

$$$$

     RDKit          

 33 35  0  0  0  0  0  0  0  0999 V2000
    0.0000    0.0000    0.0000 C   0  0  0  0  0  0  0  0  0  0  0  0
    0.0000    0.0000    0.0000 C   0  0  0  0  0  0  0  0  0  0  0  0
    0.0000    0.0000    0.0000 C   0  0  0  0  0  0  0  0  0  0  0  0
    0.0000    0.0000    0.0000 C   0  0  0  0  0  0  0  0  0  0  0  0
    0.0000    0.0000    0.0000 C   0  0  0  0  0  0  0  0  0  0  0  0
    0.0000    0.0000    0.0000 N   0  0  0  0  0  0  0  0  0  0  0  0
    0.0000    0.0000    0.0000 C   0  0  0  0  0  0  0  0  0  0  0  0
    0.0000    0.0000    0.0000 O   0  0  0  0  0  0  0  0  0  0  0  0
    0.0000    0.0000    0.0000 C   0  0  0  0  0  0  0  0  0  0  0  0
    0.0000    0.0000    0.0000 C   0  0  0  0  0  0  0  0  0  0  0  0
    0.0000    0.0000    0.0000 C   0  0  0  0  0  0  0  0  0  0  0  0
    0.0000    0.0000    0.0000 C   0  0  0  0  0  0  0  0  0  0  0  0
    0.0000    0.0000    0.0000 C   0  0  0  0  0  0  0  0  0  0  0  0
    0.0000    0.0000    0.0000 O   0  0  0  0  0  0  0  0  0  0  0  0
    0.0000    0.0000    0.0000 C   0  0  0  0  0  0  0  0  0  0  0  0
    0.0000    0.0000    0.0000 C   0  0  0  0  0  0  0  0  0  0  0  0
    0.0000    0.0000    0.0000 C   0  0  0  0  0  0  0  0  0  0  0  0
    0.0000    0.0000    0.0000 C   0  0  0  0  0  0  0  0  0  0  0  0
    0.0000    0.0000    0.0000 N   0  0  0  0  0  0  0  0  0  0  0  0
    0.0000    0.0000    0.0000 C   0  0  0  0  0  0  0  0  0  0  0  0
    0.0000    0.0000    0.0000 C   0  0  0  0  0  0  0  0  0  0  0  0
    0.0000    0.0000    0.0000 N   0  0  0  0  0  0  0  0  0  0  0  0
    0.0000    0.0000    0.0000 C   0  0  0  0  0  0  0  0  0  0  0  0
    0.0000    0.0000    0.0000 C   0  0  0  0  0  0  0  0  0  0  0  0
    0.0000    0.0000    0.0000 C   0  0  0  0  0  0  0  0  0  0  0  0
    0.0000    0.0000    0.0000 C   0  0  0  0  0  0  0  0  0  0  0  0
    0.0000    0.0000    0.0000 C   0  0  0  0  0  0  0  0  0  0  0  0
    0.0000    0.0000    0.0000 C   0  0  0  0  0  0  0  0  0  0  0  0
    0.0000    0.0000    0.0000 C   0  0  0  0  0  0  0  0  0  0  0  0
    0.0000    0.0000    0.0000 Cl  0  0  0  0  0  0  0  0  0  0  0  0
    0.0000    0.0000    0.0000 C   0  0  0  0  0  0  0  0  0  0  0  0
    0.0000    0.0000    0.0000 Cl  0  0  0  0  0  0  0  0  0  0  0  0
    0.0000    0.0000    0.0000 C   0  0  0  0  0  0  0  0  0  0  0  0
  1  2  1  0
  2  3  1  0
  3  4  1  0
  4  5  1  0
  5  6  1  0
  6  7  1  0
  7  8  2  0
  7  9  1  0
  9 10  2  0
 10 11  1  0
 11 12  2  0
 12 13  1  0
 13 14  1  0
 14 15  1  0
 15 16  1  0
 16 17  1  0
 17 18  1  0
 18 19  1  0
 19 20  1  0
 20 21  1  0
 21 22  1  0
 22 23  1  0
 23 24  1  0
 22 25  1  0
 25 26  2  0
 26 27  1  0
 27 28  2  0
 28 29  1  0
 29 30  1  0
 29 31  2  0
 31 32  1  0
 13 33  2  0
 33  9  1  0
 24 19  1  0
 31 25  1  0
M  END
>  <pIC50>  (468) 
7.78

>  <ChEMBL_ID>  (468) 
CHEMBL3805826

>  <document_journal>  (468) 
Bioorg. Med. Chem. Lett.

>  <bao_endpoint>  (468) 
BAO_0000190

>  <potential_duplicate>  (468) 
None

>  <uo_units>  (468) 
UO_0000065

>  <canonical_smiles>  (468) 
CCCCCNC(=O)c1cccc(OCCCCN2CCN(CC2)c3cccc(Cl)c3Cl)c1

>  <parent_molecule_chembl_id>  (468) 
CHEMBL3805826

>  <assay_type>  (468) 
B

>  <src_id>  (468) 
1

>  <ligand_efficiency>  (468) 
None

>  <standard_flag>  (468) 
True

>  <molecule_chembl_id>  (468) 
CHEMBL3805826

>  <target_organism>  (468) 
Homo sapiens

>  <standard_units>  (468) 
nM

>  <record_id>  (468) 
2776714

>  <document_chembl_id>  (468) 
CHEMBL3804825

>  <bao_format>  (468) 
None

>  <data_validity_description>  (468) 
None

>  <activity_id>  (468) 
16588014

>  <standard_type>  (468) 
IC50

>  <target_chembl_id>  (468) 
CHEMBL217

>  <data_validity_comment>  (468) 
None

>  <published_value>  (468) 
16.8

>  <document_year>  (468) 
2016

>  <target_pref_name>  (468) 
Dopamine D2 receptor

>  <assay_chembl_id>  (468) 
CHEMBL3806800

>  <standard_relation>  (468) 
=

>  <assay_description>  (468) 
Antagonistic activity at human dopamine D2 receptor measured after 60 mins by Ultra Lance cAMP assay

>  <published_relation>  (468) 
=

>  <standard_value>  (468) 
16.8

>  <qudt_units>  (468) 
http://www.openphacts.org/units/Nanomolar

>  <target_tax_id>  (468) 
9606

>  <bao_label>  (468) 
None

>  <published_units>  (468) 
nM

>  <pchembl_value>  (468) 
7.78

>  <published_type>  (468) 
IC50

>  <activity_comment>  (468) 
None

$$$$

     RDKit          

 30 32  0  0  0  0  0  0  0  0999 V2000
    0.0000    0.0000    0.0000 C   0  0  0  0  0  0  0  0  0  0  0  0
    0.0000    0.0000    0.0000 N   0  0  0  0  0  0  0  0  0  0  0  0
    0.0000    0.0000    0.0000 C   0  0  0  0  0  0  0  0  0  0  0  0
    0.0000    0.0000    0.0000 O   0  0  0  0  0  0  0  0  0  0  0  0
    0.0000    0.0000    0.0000 C   0  0  0  0  0  0  0  0  0  0  0  0
    0.0000    0.0000    0.0000 C   0  0  0  0  0  0  0  0  0  0  0  0
    0.0000    0.0000    0.0000 C   0  0  0  0  0  0  0  0  0  0  0  0
    0.0000    0.0000    0.0000 O   0  0  0  0  0  0  0  0  0  0  0  0
    0.0000    0.0000    0.0000 C   0  0  0  0  0  0  0  0  0  0  0  0
    0.0000    0.0000    0.0000 C   0  0  0  0  0  0  0  0  0  0  0  0
    0.0000    0.0000    0.0000 C   0  0  0  0  0  0  0  0  0  0  0  0
    0.0000    0.0000    0.0000 C   0  0  0  0  0  0  0  0  0  0  0  0
    0.0000    0.0000    0.0000 N   0  0  0  0  0  0  0  0  0  0  0  0
    0.0000    0.0000    0.0000 C   0  0  0  0  0  0  0  0  0  0  0  0
    0.0000    0.0000    0.0000 C   0  0  0  0  0  0  0  0  0  0  0  0
    0.0000    0.0000    0.0000 N   0  0  0  0  0  0  0  0  0  0  0  0
    0.0000    0.0000    0.0000 C   0  0  0  0  0  0  0  0  0  0  0  0
    0.0000    0.0000    0.0000 C   0  0  0  0  0  0  0  0  0  0  0  0
    0.0000    0.0000    0.0000 C   0  0  0  0  0  0  0  0  0  0  0  0
    0.0000    0.0000    0.0000 C   0  0  0  0  0  0  0  0  0  0  0  0
    0.0000    0.0000    0.0000 C   0  0  0  0  0  0  0  0  0  0  0  0
    0.0000    0.0000    0.0000 C   0  0  0  0  0  0  0  0  0  0  0  0
    0.0000    0.0000    0.0000 C   0  0  0  0  0  0  0  0  0  0  0  0
    0.0000    0.0000    0.0000 Cl  0  0  0  0  0  0  0  0  0  0  0  0
    0.0000    0.0000    0.0000 C   0  0  0  0  0  0  0  0  0  0  0  0
    0.0000    0.0000    0.0000 Cl  0  0  0  0  0  0  0  0  0  0  0  0
    0.0000    0.0000    0.0000 C   0  0  0  0  0  0  0  0  0  0  0  0
    0.0000    0.0000    0.0000 C   0  0  0  0  0  0  0  0  0  0  0  0
    0.0000    0.0000    0.0000 C   0  0  0  0  0  0  0  0  0  0  0  0
    0.0000    0.0000    0.0000 C   0  0  0  0  0  0  0  0  0  0  0  0
  1  2  1  0
  2  3  1  0
  3  4  2  0
  3  5  1  0
  5  6  2  0
  6  7  1  0
  7  8  1  0
  8  9  1  0
  9 10  1  0
 10 11  1  0
 11 12  1  0
 12 13  1  0
 13 14  1  0
 14 15  1  0
 15 16  1  0
 16 17  1  0
 17 18  1  0
 16 19  1  0
 19 20  2  0
 20 21  1  0
 21 22  2  0
 22 23  1  0
 23 24  1  0
 23 25  2  0
 25 26  1  0
  7 27  2  0
 27 28  1  0
 28 29  2  0
 29 30  1  0
 29  5  1  0
 18 13  1  0
 25 19  1  0
M  END
>  <pIC50>  (469) 
8.01

>  <ChEMBL_ID>  (469) 
CHEMBL3805120

>  <document_journal>  (469) 
Bioorg. Med. Chem. Lett.

>  <bao_endpoint>  (469) 
BAO_0000190

>  <potential_duplicate>  (469) 
None

>  <uo_units>  (469) 
UO_0000065

>  <canonical_smiles>  (469) 
CNC(=O)c1cc(OCCCCN2CCN(CC2)c3cccc(Cl)c3Cl)ccc1C

>  <parent_molecule_chembl_id>  (469) 
CHEMBL3805120

>  <assay_type>  (469) 
B

>  <src_id>  (469) 
1

>  <ligand_efficiency>  (469) 
None

>  <standard_flag>  (469) 
True

>  <molecule_chembl_id>  (469) 
CHEMBL3805120

>  <target_organism>  (469) 
Homo sapiens

>  <standard_units>  (469) 
nM

>  <record_id>  (469) 
2776715

>  <document_chembl_id>  (469) 
CHEMBL3804825

>  <bao_format>  (469) 
None

>  <data_validity_description>  (469) 
None

>  <activity_id>  (469) 
16588314

>  <standard_type>  (469) 
IC50

>  <target_chembl_id>  (469) 
CHEMBL217

>  <data_validity_comment>  (469) 
None

>  <published_value>  (469) 
9.8

>  <document_year>  (469) 
2016

>  <target_pref_name>  (469) 
Dopamine D2 receptor

>  <assay_chembl_id>  (469) 
CHEMBL3806800

>  <standard_relation>  (469) 
=

>  <assay_description>  (469) 
Antagonistic activity at human dopamine D2 receptor measured after 60 mins by Ultra Lance cAMP assay

>  <published_relation>  (469) 
=

>  <standard_value>  (469) 
9.8

>  <qudt_units>  (469) 
http://www.openphacts.org/units/Nanomolar

>  <target_tax_id>  (469) 
9606

>  <bao_label>  (469) 
None

>  <published_units>  (469) 
nM

>  <pchembl_value>  (469) 
8.01

>  <published_type>  (469) 
IC50

>  <activity_comment>  (469) 
None

$$$$

     RDKit          

 30 32  0  0  0  0  0  0  0  0999 V2000
    0.0000    0.0000    0.0000 C   0  0  0  0  0  0  0  0  0  0  0  0
    0.0000    0.0000    0.0000 N   0  0  0  0  0  0  0  0  0  0  0  0
    0.0000    0.0000    0.0000 C   0  0  0  0  0  0  0  0  0  0  0  0
    0.0000    0.0000    0.0000 O   0  0  0  0  0  0  0  0  0  0  0  0
    0.0000    0.0000    0.0000 C   0  0  0  0  0  0  0  0  0  0  0  0
    0.0000    0.0000    0.0000 C   0  0  0  0  0  0  0  0  0  0  0  0
    0.0000    0.0000    0.0000 C   0  0  0  0  0  0  0  0  0  0  0  0
    0.0000    0.0000    0.0000 O   0  0  0  0  0  0  0  0  0  0  0  0
    0.0000    0.0000    0.0000 C   0  0  0  0  0  0  0  0  0  0  0  0
    0.0000    0.0000    0.0000 C   0  0  0  0  0  0  0  0  0  0  0  0
    0.0000    0.0000    0.0000 C   0  0  0  0  0  0  0  0  0  0  0  0
    0.0000    0.0000    0.0000 C   0  0  0  0  0  0  0  0  0  0  0  0
    0.0000    0.0000    0.0000 N   0  0  0  0  0  0  0  0  0  0  0  0
    0.0000    0.0000    0.0000 C   0  0  0  0  0  0  0  0  0  0  0  0
    0.0000    0.0000    0.0000 C   0  0  0  0  0  0  0  0  0  0  0  0
    0.0000    0.0000    0.0000 N   0  0  0  0  0  0  0  0  0  0  0  0
    0.0000    0.0000    0.0000 C   0  0  0  0  0  0  0  0  0  0  0  0
    0.0000    0.0000    0.0000 C   0  0  0  0  0  0  0  0  0  0  0  0
    0.0000    0.0000    0.0000 C   0  0  0  0  0  0  0  0  0  0  0  0
    0.0000    0.0000    0.0000 C   0  0  0  0  0  0  0  0  0  0  0  0
    0.0000    0.0000    0.0000 C   0  0  0  0  0  0  0  0  0  0  0  0
    0.0000    0.0000    0.0000 C   0  0  0  0  0  0  0  0  0  0  0  0
    0.0000    0.0000    0.0000 C   0  0  0  0  0  0  0  0  0  0  0  0
    0.0000    0.0000    0.0000 Cl  0  0  0  0  0  0  0  0  0  0  0  0
    0.0000    0.0000    0.0000 C   0  0  0  0  0  0  0  0  0  0  0  0
    0.0000    0.0000    0.0000 Cl  0  0  0  0  0  0  0  0  0  0  0  0
    0.0000    0.0000    0.0000 C   0  0  0  0  0  0  0  0  0  0  0  0
    0.0000    0.0000    0.0000 C   0  0  0  0  0  0  0  0  0  0  0  0
    0.0000    0.0000    0.0000 C   0  0  0  0  0  0  0  0  0  0  0  0
    0.0000    0.0000    0.0000 F   0  0  0  0  0  0  0  0  0  0  0  0
  1  2  1  0
  2  3  1  0
  3  4  2  0
  3  5  1  0
  5  6  2  0
  6  7  1  0
  7  8  1  0
  8  9  1  0
  9 10  1  0
 10 11  1  0
 11 12  1  0
 12 13  1  0
 13 14  1  0
 14 15  1  0
 15 16  1  0
 16 17  1  0
 17 18  1  0
 16 19  1  0
 19 20  2  0
 20 21  1  0
 21 22  2  0
 22 23  1  0
 23 24  1  0
 23 25  2  0
 25 26  1  0
  7 27  2  0
 27 28  1  0
 28 29  2  0
 29 30  1  0
 29  5  1  0
 18 13  1  0
 25 19  1  0
M  END
>  <pIC50>  (470) 
7.41

>  <ChEMBL_ID>  (470) 
CHEMBL3805884

>  <document_journal>  (470) 
Bioorg. Med. Chem. Lett.

>  <bao_endpoint>  (470) 
BAO_0000190

>  <potential_duplicate>  (470) 
None

>  <uo_units>  (470) 
UO_0000065

>  <canonical_smiles>  (470) 
CNC(=O)c1cc(OCCCCN2CCN(CC2)c3cccc(Cl)c3Cl)ccc1F

>  <parent_molecule_chembl_id>  (470) 
CHEMBL3805884

>  <assay_type>  (470) 
B

>  <src_id>  (470) 
1

>  <ligand_efficiency>  (470) 
None

>  <standard_flag>  (470) 
True

>  <molecule_chembl_id>  (470) 
CHEMBL3805884

>  <target_organism>  (470) 
Homo sapiens

>  <standard_units>  (470) 
nM

>  <record_id>  (470) 
2776716

>  <document_chembl_id>  (470) 
CHEMBL3804825

>  <bao_format>  (470) 
None

>  <data_validity_description>  (470) 
None

>  <activity_id>  (470) 
16588317

>  <standard_type>  (470) 
IC50

>  <target_chembl_id>  (470) 
CHEMBL217

>  <data_validity_comment>  (470) 
None

>  <published_value>  (470) 
39.4

>  <document_year>  (470) 
2016

>  <target_pref_name>  (470) 
Dopamine D2 receptor

>  <assay_chembl_id>  (470) 
CHEMBL3806800

>  <standard_relation>  (470) 
=

>  <assay_description>  (470) 
Antagonistic activity at human dopamine D2 receptor measured after 60 mins by Ultra Lance cAMP assay

>  <published_relation>  (470) 
=

>  <standard_value>  (470) 
39.4

>  <qudt_units>  (470) 
http://www.openphacts.org/units/Nanomolar

>  <target_tax_id>  (470) 
9606

>  <bao_label>  (470) 
None

>  <published_units>  (470) 
nM

>  <pchembl_value>  (470) 
7.41

>  <published_type>  (470) 
IC50

>  <activity_comment>  (470) 
None

$$$$

     RDKit          

 30 32  0  0  0  0  0  0  0  0999 V2000
    0.0000    0.0000    0.0000 C   0  0  0  0  0  0  0  0  0  0  0  0
    0.0000    0.0000    0.0000 N   0  0  0  0  0  0  0  0  0  0  0  0
    0.0000    0.0000    0.0000 C   0  0  0  0  0  0  0  0  0  0  0  0
    0.0000    0.0000    0.0000 O   0  0  0  0  0  0  0  0  0  0  0  0
    0.0000    0.0000    0.0000 C   0  0  0  0  0  0  0  0  0  0  0  0
    0.0000    0.0000    0.0000 C   0  0  0  0  0  0  0  0  0  0  0  0
    0.0000    0.0000    0.0000 C   0  0  0  0  0  0  0  0  0  0  0  0
    0.0000    0.0000    0.0000 C   0  0  0  0  0  0  0  0  0  0  0  0
    0.0000    0.0000    0.0000 C   0  0  0  0  0  0  0  0  0  0  0  0
    0.0000    0.0000    0.0000 O   0  0  0  0  0  0  0  0  0  0  0  0
    0.0000    0.0000    0.0000 C   0  0  0  0  0  0  0  0  0  0  0  0
    0.0000    0.0000    0.0000 C   0  0  0  0  0  0  0  0  0  0  0  0
    0.0000    0.0000    0.0000 C   0  0  0  0  0  0  0  0  0  0  0  0
    0.0000    0.0000    0.0000 C   0  0  0  0  0  0  0  0  0  0  0  0
    0.0000    0.0000    0.0000 N   0  0  0  0  0  0  0  0  0  0  0  0
    0.0000    0.0000    0.0000 C   0  0  0  0  0  0  0  0  0  0  0  0
    0.0000    0.0000    0.0000 C   0  0  0  0  0  0  0  0  0  0  0  0
    0.0000    0.0000    0.0000 N   0  0  0  0  0  0  0  0  0  0  0  0
    0.0000    0.0000    0.0000 C   0  0  0  0  0  0  0  0  0  0  0  0
    0.0000    0.0000    0.0000 C   0  0  0  0  0  0  0  0  0  0  0  0
    0.0000    0.0000    0.0000 C   0  0  0  0  0  0  0  0  0  0  0  0
    0.0000    0.0000    0.0000 C   0  0  0  0  0  0  0  0  0  0  0  0
    0.0000    0.0000    0.0000 C   0  0  0  0  0  0  0  0  0  0  0  0
    0.0000    0.0000    0.0000 C   0  0  0  0  0  0  0  0  0  0  0  0
    0.0000    0.0000    0.0000 C   0  0  0  0  0  0  0  0  0  0  0  0
    0.0000    0.0000    0.0000 Cl  0  0  0  0  0  0  0  0  0  0  0  0
    0.0000    0.0000    0.0000 C   0  0  0  0  0  0  0  0  0  0  0  0
    0.0000    0.0000    0.0000 Cl  0  0  0  0  0  0  0  0  0  0  0  0
    0.0000    0.0000    0.0000 C   0  0  0  0  0  0  0  0  0  0  0  0
    0.0000    0.0000    0.0000 C   0  0  0  0  0  0  0  0  0  0  0  0
  1  2  1  0
  2  3  1  0
  3  4  2  0
  3  5  1  0
  5  6  2  0
  6  7  1  0
  7  8  2  0
  8  9  1  0
  9 10  1  0
 10 11  1  0
 11 12  1  0
 12 13  1  0
 13 14  1  0
 14 15  1  0
 15 16  1  0
 16 17  1  0
 17 18  1  0
 18 19  1  0
 19 20  1  0
 18 21  1  0
 21 22  2  0
 22 23  1  0
 23 24  2  0
 24 25  1  0
 25 26  1  0
 25 27  2  0
 27 28  1  0
  9 29  2  0
 29 30  1  0
 29  5  1  0
 20 15  1  0
 27 21  1  0
M  END
>  <pIC50>  (471) 
5.44

>  <ChEMBL_ID>  (471) 
CHEMBL3806091

>  <document_journal>  (471) 
Bioorg. Med. Chem. Lett.

>  <bao_endpoint>  (471) 
BAO_0000190

>  <potential_duplicate>  (471) 
None

>  <uo_units>  (471) 
UO_0000065

>  <canonical_smiles>  (471) 
CNC(=O)c1cccc(OCCCCN2CCN(CC2)c3cccc(Cl)c3Cl)c1C

>  <parent_molecule_chembl_id>  (471) 
CHEMBL3806091

>  <assay_type>  (471) 
B

>  <src_id>  (471) 
1

>  <ligand_efficiency>  (471) 
None

>  <standard_flag>  (471) 
True

>  <molecule_chembl_id>  (471) 
CHEMBL3806091

>  <target_organism>  (471) 
Homo sapiens

>  <standard_units>  (471) 
nM

>  <record_id>  (471) 
2776717

>  <document_chembl_id>  (471) 
CHEMBL3804825

>  <bao_format>  (471) 
None

>  <data_validity_description>  (471) 
None

>  <activity_id>  (471) 
16588320

>  <standard_type>  (471) 
IC50

>  <target_chembl_id>  (471) 
CHEMBL217

>  <data_validity_comment>  (471) 
None

>  <published_value>  (471) 
3600

>  <document_year>  (471) 
2016

>  <target_pref_name>  (471) 
Dopamine D2 receptor

>  <assay_chembl_id>  (471) 
CHEMBL3806800

>  <standard_relation>  (471) 
=

>  <assay_description>  (471) 
Antagonistic activity at human dopamine D2 receptor measured after 60 mins by Ultra Lance cAMP assay

>  <published_relation>  (471) 
=

>  <standard_value>  (471) 
3600

>  <qudt_units>  (471) 
http://www.openphacts.org/units/Nanomolar

>  <target_tax_id>  (471) 
9606

>  <bao_label>  (471) 
None

>  <published_units>  (471) 
nM

>  <pchembl_value>  (471) 
5.44

>  <published_type>  (471) 
IC50

>  <activity_comment>  (471) 
None

$$$$

     RDKit          

 31 33  0  0  0  0  0  0  0  0999 V2000
    0.0000    0.0000    0.0000 C   0  0  0  0  0  0  0  0  0  0  0  0
    0.0000    0.0000    0.0000 N   0  0  0  0  0  0  0  0  0  0  0  0
    0.0000    0.0000    0.0000 C   0  0  0  0  0  0  0  0  0  0  0  0
    0.0000    0.0000    0.0000 O   0  0  0  0  0  0  0  0  0  0  0  0
    0.0000    0.0000    0.0000 C   0  0  0  0  0  0  0  0  0  0  0  0
    0.0000    0.0000    0.0000 C   0  0  0  0  0  0  0  0  0  0  0  0
    0.0000    0.0000    0.0000 C   0  0  0  0  0  0  0  0  0  0  0  0
    0.0000    0.0000    0.0000 C   0  0  0  0  0  0  0  0  0  0  0  0
    0.0000    0.0000    0.0000 O   0  0  0  0  0  0  0  0  0  0  0  0
    0.0000    0.0000    0.0000 C   0  0  0  0  0  0  0  0  0  0  0  0
    0.0000    0.0000    0.0000 C   0  0  0  0  0  0  0  0  0  0  0  0
    0.0000    0.0000    0.0000 O   0  0  0  0  0  0  0  0  0  0  0  0
    0.0000    0.0000    0.0000 C   0  0  0  0  0  0  0  0  0  0  0  0
    0.0000    0.0000    0.0000 C   0  0  0  0  0  0  0  0  0  0  0  0
    0.0000    0.0000    0.0000 C   0  0  0  0  0  0  0  0  0  0  0  0
    0.0000    0.0000    0.0000 C   0  0  0  0  0  0  0  0  0  0  0  0
    0.0000    0.0000    0.0000 N   0  0  0  0  0  0  0  0  0  0  0  0
    0.0000    0.0000    0.0000 C   0  0  0  0  0  0  0  0  0  0  0  0
    0.0000    0.0000    0.0000 C   0  0  0  0  0  0  0  0  0  0  0  0
    0.0000    0.0000    0.0000 N   0  0  0  0  0  0  0  0  0  0  0  0
    0.0000    0.0000    0.0000 C   0  0  0  0  0  0  0  0  0  0  0  0
    0.0000    0.0000    0.0000 C   0  0  0  0  0  0  0  0  0  0  0  0
    0.0000    0.0000    0.0000 C   0  0  0  0  0  0  0  0  0  0  0  0
    0.0000    0.0000    0.0000 C   0  0  0  0  0  0  0  0  0  0  0  0
    0.0000    0.0000    0.0000 C   0  0  0  0  0  0  0  0  0  0  0  0
    0.0000    0.0000    0.0000 C   0  0  0  0  0  0  0  0  0  0  0  0
    0.0000    0.0000    0.0000 C   0  0  0  0  0  0  0  0  0  0  0  0
    0.0000    0.0000    0.0000 Cl  0  0  0  0  0  0  0  0  0  0  0  0
    0.0000    0.0000    0.0000 C   0  0  0  0  0  0  0  0  0  0  0  0
    0.0000    0.0000    0.0000 Cl  0  0  0  0  0  0  0  0  0  0  0  0
    0.0000    0.0000    0.0000 C   0  0  0  0  0  0  0  0  0  0  0  0
  1  2  1  0
  2  3  1  0
  3  4  2  0
  3  5  1  0
  5  6  2  0
  6  7  1  0
  7  8  2  0
  8  9  1  0
  9 10  1  0
  8 11  1  0
 11 12  1  0
 12 13  1  0
 13 14  1  0
 14 15  1  0
 15 16  1  0
 16 17  1  0
 17 18  1  0
 18 19  1  0
 19 20  1  0
 20 21  1  0
 21 22  1  0
 20 23  1  0
 23 24  2  0
 24 25  1  0
 25 26  2  0
 26 27  1  0
 27 28  1  0
 27 29  2  0
 29 30  1  0
 11 31  2  0
 31  5  1  0
 22 17  1  0
 29 23  1  0
M  END
>  <pIC50>  (472) 
7.92

>  <ChEMBL_ID>  (472) 
CHEMBL3804943

>  <document_journal>  (472) 
Bioorg. Med. Chem. Lett.

>  <bao_endpoint>  (472) 
BAO_0000190

>  <potential_duplicate>  (472) 
None

>  <uo_units>  (472) 
UO_0000065

>  <canonical_smiles>  (472) 
CNC(=O)c1ccc(OC)c(OCCCCN2CCN(CC2)c3cccc(Cl)c3Cl)c1

>  <parent_molecule_chembl_id>  (472) 
CHEMBL3804943

>  <assay_type>  (472) 
B

>  <src_id>  (472) 
1

>  <ligand_efficiency>  (472) 
None

>  <standard_flag>  (472) 
True

>  <molecule_chembl_id>  (472) 
CHEMBL3804943

>  <target_organism>  (472) 
Homo sapiens

>  <standard_units>  (472) 
nM

>  <record_id>  (472) 
2776718

>  <document_chembl_id>  (472) 
CHEMBL3804825

>  <bao_format>  (472) 
None

>  <data_validity_description>  (472) 
None

>  <activity_id>  (472) 
16588323

>  <standard_type>  (472) 
IC50

>  <target_chembl_id>  (472) 
CHEMBL217

>  <data_validity_comment>  (472) 
None

>  <published_value>  (472) 
12

>  <document_year>  (472) 
2016

>  <target_pref_name>  (472) 
Dopamine D2 receptor

>  <assay_chembl_id>  (472) 
CHEMBL3806800

>  <standard_relation>  (472) 
=

>  <assay_description>  (472) 
Antagonistic activity at human dopamine D2 receptor measured after 60 mins by Ultra Lance cAMP assay

>  <published_relation>  (472) 
=

>  <standard_value>  (472) 
12

>  <qudt_units>  (472) 
http://www.openphacts.org/units/Nanomolar

>  <target_tax_id>  (472) 
9606

>  <bao_label>  (472) 
None

>  <published_units>  (472) 
nM

>  <pchembl_value>  (472) 
7.92

>  <published_type>  (472) 
IC50

>  <activity_comment>  (472) 
None

$$$$

     RDKit          

 30 32  0  0  0  0  0  0  0  0999 V2000
    0.0000    0.0000    0.0000 C   0  0  0  0  0  0  0  0  0  0  0  0
    0.0000    0.0000    0.0000 N   0  0  0  0  0  0  0  0  0  0  0  0
    0.0000    0.0000    0.0000 C   0  0  0  0  0  0  0  0  0  0  0  0
    0.0000    0.0000    0.0000 O   0  0  0  0  0  0  0  0  0  0  0  0
    0.0000    0.0000    0.0000 C   0  0  0  0  0  0  0  0  0  0  0  0
    0.0000    0.0000    0.0000 C   0  0  0  0  0  0  0  0  0  0  0  0
    0.0000    0.0000    0.0000 C   0  0  0  0  0  0  0  0  0  0  0  0
    0.0000    0.0000    0.0000 O   0  0  0  0  0  0  0  0  0  0  0  0
    0.0000    0.0000    0.0000 C   0  0  0  0  0  0  0  0  0  0  0  0
    0.0000    0.0000    0.0000 C   0  0  0  0  0  0  0  0  0  0  0  0
    0.0000    0.0000    0.0000 C   0  0  0  0  0  0  0  0  0  0  0  0
    0.0000    0.0000    0.0000 C   0  0  0  0  0  0  0  0  0  0  0  0
    0.0000    0.0000    0.0000 N   0  0  0  0  0  0  0  0  0  0  0  0
    0.0000    0.0000    0.0000 C   0  0  0  0  0  0  0  0  0  0  0  0
    0.0000    0.0000    0.0000 C   0  0  0  0  0  0  0  0  0  0  0  0
    0.0000    0.0000    0.0000 N   0  0  0  0  0  0  0  0  0  0  0  0
    0.0000    0.0000    0.0000 C   0  0  0  0  0  0  0  0  0  0  0  0
    0.0000    0.0000    0.0000 C   0  0  0  0  0  0  0  0  0  0  0  0
    0.0000    0.0000    0.0000 C   0  0  0  0  0  0  0  0  0  0  0  0
    0.0000    0.0000    0.0000 C   0  0  0  0  0  0  0  0  0  0  0  0
    0.0000    0.0000    0.0000 C   0  0  0  0  0  0  0  0  0  0  0  0
    0.0000    0.0000    0.0000 C   0  0  0  0  0  0  0  0  0  0  0  0
    0.0000    0.0000    0.0000 C   0  0  0  0  0  0  0  0  0  0  0  0
    0.0000    0.0000    0.0000 Cl  0  0  0  0  0  0  0  0  0  0  0  0
    0.0000    0.0000    0.0000 C   0  0  0  0  0  0  0  0  0  0  0  0
    0.0000    0.0000    0.0000 Cl  0  0  0  0  0  0  0  0  0  0  0  0
    0.0000    0.0000    0.0000 C   0  0  0  0  0  0  0  0  0  0  0  0
    0.0000    0.0000    0.0000 C   0  0  0  0  0  0  0  0  0  0  0  0
    0.0000    0.0000    0.0000 C   0  0  0  0  0  0  0  0  0  0  0  0
    0.0000    0.0000    0.0000 Cl  0  0  0  0  0  0  0  0  0  0  0  0
  1  2  1  0
  2  3  1  0
  3  4  2  0
  3  5  1  0
  5  6  2  0
  6  7  1  0
  7  8  1  0
  8  9  1  0
  9 10  1  0
 10 11  1  0
 11 12  1  0
 12 13  1  0
 13 14  1  0
 14 15  1  0
 15 16  1  0
 16 17  1  0
 17 18  1  0
 16 19  1  0
 19 20  2  0
 20 21  1  0
 21 22  2  0
 22 23  1  0
 23 24  1  0
 23 25  2  0
 25 26  1  0
  7 27  2  0
 27 28  1  0
 28 29  2  0
 29 30  1  0
 29  5  1  0
 18 13  1  0
 25 19  1  0
M  END
>  <pIC50>  (473) 
7.46

>  <ChEMBL_ID>  (473) 
CHEMBL3806224

>  <document_journal>  (473) 
Bioorg. Med. Chem. Lett.

>  <bao_endpoint>  (473) 
BAO_0000190

>  <potential_duplicate>  (473) 
None

>  <uo_units>  (473) 
UO_0000065

>  <canonical_smiles>  (473) 
CNC(=O)c1cc(OCCCCN2CCN(CC2)c3cccc(Cl)c3Cl)ccc1Cl

>  <parent_molecule_chembl_id>  (473) 
CHEMBL3806224

>  <assay_type>  (473) 
B

>  <src_id>  (473) 
1

>  <ligand_efficiency>  (473) 
None

>  <standard_flag>  (473) 
True

>  <molecule_chembl_id>  (473) 
CHEMBL3806224

>  <target_organism>  (473) 
Homo sapiens

>  <standard_units>  (473) 
nM

>  <record_id>  (473) 
2776719

>  <document_chembl_id>  (473) 
CHEMBL3804825

>  <bao_format>  (473) 
None

>  <data_validity_description>  (473) 
None

>  <activity_id>  (473) 
16588326

>  <standard_type>  (473) 
IC50

>  <target_chembl_id>  (473) 
CHEMBL217

>  <data_validity_comment>  (473) 
None

>  <published_value>  (473) 
34.9

>  <document_year>  (473) 
2016

>  <target_pref_name>  (473) 
Dopamine D2 receptor

>  <assay_chembl_id>  (473) 
CHEMBL3806800

>  <standard_relation>  (473) 
=

>  <assay_description>  (473) 
Antagonistic activity at human dopamine D2 receptor measured after 60 mins by Ultra Lance cAMP assay

>  <published_relation>  (473) 
=

>  <standard_value>  (473) 
34.9

>  <qudt_units>  (473) 
http://www.openphacts.org/units/Nanomolar

>  <target_tax_id>  (473) 
9606

>  <bao_label>  (473) 
None

>  <published_units>  (473) 
nM

>  <pchembl_value>  (473) 
7.46

>  <published_type>  (473) 
IC50

>  <activity_comment>  (473) 
None

$$$$

     RDKit          

 30 32  0  0  0  0  0  0  0  0999 V2000
    0.0000    0.0000    0.0000 C   0  0  0  0  0  0  0  0  0  0  0  0
    0.0000    0.0000    0.0000 N   0  0  0  0  0  0  0  0  0  0  0  0
    0.0000    0.0000    0.0000 C   0  0  0  0  0  0  0  0  0  0  0  0
    0.0000    0.0000    0.0000 O   0  0  0  0  0  0  0  0  0  0  0  0
    0.0000    0.0000    0.0000 C   0  0  0  0  0  0  0  0  0  0  0  0
    0.0000    0.0000    0.0000 C   0  0  0  0  0  0  0  0  0  0  0  0
    0.0000    0.0000    0.0000 C   0  0  0  0  0  0  0  0  0  0  0  0
    0.0000    0.0000    0.0000 C   0  0  0  0  0  0  0  0  0  0  0  0
    0.0000    0.0000    0.0000 C   0  0  0  0  0  0  0  0  0  0  0  0
    0.0000    0.0000    0.0000 C   0  0  0  0  0  0  0  0  0  0  0  0
    0.0000    0.0000    0.0000 O   0  0  0  0  0  0  0  0  0  0  0  0
    0.0000    0.0000    0.0000 C   0  0  0  0  0  0  0  0  0  0  0  0
    0.0000    0.0000    0.0000 C   0  0  0  0  0  0  0  0  0  0  0  0
    0.0000    0.0000    0.0000 C   0  0  0  0  0  0  0  0  0  0  0  0
    0.0000    0.0000    0.0000 C   0  0  0  0  0  0  0  0  0  0  0  0
    0.0000    0.0000    0.0000 N   0  0  0  0  0  0  0  0  0  0  0  0
    0.0000    0.0000    0.0000 C   0  0  0  0  0  0  0  0  0  0  0  0
    0.0000    0.0000    0.0000 C   0  0  0  0  0  0  0  0  0  0  0  0
    0.0000    0.0000    0.0000 N   0  0  0  0  0  0  0  0  0  0  0  0
    0.0000    0.0000    0.0000 C   0  0  0  0  0  0  0  0  0  0  0  0
    0.0000    0.0000    0.0000 C   0  0  0  0  0  0  0  0  0  0  0  0
    0.0000    0.0000    0.0000 C   0  0  0  0  0  0  0  0  0  0  0  0
    0.0000    0.0000    0.0000 C   0  0  0  0  0  0  0  0  0  0  0  0
    0.0000    0.0000    0.0000 C   0  0  0  0  0  0  0  0  0  0  0  0
    0.0000    0.0000    0.0000 C   0  0  0  0  0  0  0  0  0  0  0  0
    0.0000    0.0000    0.0000 C   0  0  0  0  0  0  0  0  0  0  0  0
    0.0000    0.0000    0.0000 Cl  0  0  0  0  0  0  0  0  0  0  0  0
    0.0000    0.0000    0.0000 C   0  0  0  0  0  0  0  0  0  0  0  0
    0.0000    0.0000    0.0000 Cl  0  0  0  0  0  0  0  0  0  0  0  0
    0.0000    0.0000    0.0000 C   0  0  0  0  0  0  0  0  0  0  0  0
  1  2  1  0
  2  3  1  0
  3  4  2  0
  3  5  1  0
  5  6  2  0
  6  7  1  0
  7  8  1  0
  7  9  2  0
  9 10  1  0
 10 11  1  0
 11 12  1  0
 12 13  1  0
 13 14  1  0
 14 15  1  0
 15 16  1  0
 16 17  1  0
 17 18  1  0
 18 19  1  0
 19 20  1  0
 20 21  1  0
 19 22  1  0
 22 23  2  0
 23 24  1  0
 24 25  2  0
 25 26  1  0
 26 27  1  0
 26 28  2  0
 28 29  1  0
 10 30  2  0
 30  5  1  0
 21 16  1  0
 28 22  1  0
M  END
>  <pIC50>  (474) 
7.05

>  <ChEMBL_ID>  (474) 
CHEMBL3806047

>  <document_journal>  (474) 
Bioorg. Med. Chem. Lett.

>  <bao_endpoint>  (474) 
BAO_0000190

>  <potential_duplicate>  (474) 
None

>  <uo_units>  (474) 
UO_0000065

>  <canonical_smiles>  (474) 
CNC(=O)c1cc(C)cc(OCCCCN2CCN(CC2)c3cccc(Cl)c3Cl)c1

>  <parent_molecule_chembl_id>  (474) 
CHEMBL3806047

>  <assay_type>  (474) 
B

>  <src_id>  (474) 
1

>  <ligand_efficiency>  (474) 
None

>  <standard_flag>  (474) 
True

>  <molecule_chembl_id>  (474) 
CHEMBL3806047

>  <target_organism>  (474) 
Homo sapiens

>  <standard_units>  (474) 
nM

>  <record_id>  (474) 
2776720

>  <document_chembl_id>  (474) 
CHEMBL3804825

>  <bao_format>  (474) 
None

>  <data_validity_description>  (474) 
None

>  <activity_id>  (474) 
16588329

>  <standard_type>  (474) 
IC50

>  <target_chembl_id>  (474) 
CHEMBL217

>  <data_validity_comment>  (474) 
None

>  <published_value>  (474) 
89.8

>  <document_year>  (474) 
2016

>  <target_pref_name>  (474) 
Dopamine D2 receptor

>  <assay_chembl_id>  (474) 
CHEMBL3806800

>  <standard_relation>  (474) 
=

>  <assay_description>  (474) 
Antagonistic activity at human dopamine D2 receptor measured after 60 mins by Ultra Lance cAMP assay

>  <published_relation>  (474) 
=

>  <standard_value>  (474) 
89.8

>  <qudt_units>  (474) 
http://www.openphacts.org/units/Nanomolar

>  <target_tax_id>  (474) 
9606

>  <bao_label>  (474) 
None

>  <published_units>  (474) 
nM

>  <pchembl_value>  (474) 
7.05

>  <published_type>  (474) 
IC50

>  <activity_comment>  (474) 
None

$$$$

     RDKit          

 32 34  0  0  0  0  0  0  0  0999 V2000
    0.0000    0.0000    0.0000 C   0  0  0  0  0  0  0  0  0  0  0  0
    0.0000    0.0000    0.0000 N   0  0  0  0  0  0  0  0  0  0  0  0
    0.0000    0.0000    0.0000 C   0  0  0  0  0  0  0  0  0  0  0  0
    0.0000    0.0000    0.0000 O   0  0  0  0  0  0  0  0  0  0  0  0
    0.0000    0.0000    0.0000 C   0  0  0  0  0  0  0  0  0  0  0  0
    0.0000    0.0000    0.0000 C   0  0  0  0  0  0  0  0  0  0  0  0
    0.0000    0.0000    0.0000 C   0  0  0  0  0  0  0  0  0  0  0  0
    0.0000    0.0000    0.0000 O   0  0  0  0  0  0  0  0  0  0  0  0
    0.0000    0.0000    0.0000 C   0  0  0  0  0  0  0  0  0  0  0  0
    0.0000    0.0000    0.0000 C   0  0  0  0  0  0  0  0  0  0  0  0
    0.0000    0.0000    0.0000 C   0  0  0  0  0  0  0  0  0  0  0  0
    0.0000    0.0000    0.0000 C   0  0  0  0  0  0  0  0  0  0  0  0
    0.0000    0.0000    0.0000 N   0  0  0  0  0  0  0  0  0  0  0  0
    0.0000    0.0000    0.0000 C   0  0  0  0  0  0  0  0  0  0  0  0
    0.0000    0.0000    0.0000 C   0  0  0  0  0  0  0  0  0  0  0  0
    0.0000    0.0000    0.0000 N   0  0  0  0  0  0  0  0  0  0  0  0
    0.0000    0.0000    0.0000 C   0  0  0  0  0  0  0  0  0  0  0  0
    0.0000    0.0000    0.0000 C   0  0  0  0  0  0  0  0  0  0  0  0
    0.0000    0.0000    0.0000 C   0  0  0  0  0  0  0  0  0  0  0  0
    0.0000    0.0000    0.0000 C   0  0  0  0  0  0  0  0  0  0  0  0
    0.0000    0.0000    0.0000 C   0  0  0  0  0  0  0  0  0  0  0  0
    0.0000    0.0000    0.0000 C   0  0  0  0  0  0  0  0  0  0  0  0
    0.0000    0.0000    0.0000 C   0  0  0  0  0  0  0  0  0  0  0  0
    0.0000    0.0000    0.0000 Cl  0  0  0  0  0  0  0  0  0  0  0  0
    0.0000    0.0000    0.0000 C   0  0  0  0  0  0  0  0  0  0  0  0
    0.0000    0.0000    0.0000 Cl  0  0  0  0  0  0  0  0  0  0  0  0
    0.0000    0.0000    0.0000 C   0  0  0  0  0  0  0  0  0  0  0  0
    0.0000    0.0000    0.0000 C   0  0  0  0  0  0  0  0  0  0  0  0
    0.0000    0.0000    0.0000 C   0  0  0  0  0  0  0  0  0  0  0  0
    0.0000    0.0000    0.0000 C   0  0  0  0  0  0  0  0  0  0  0  0
    0.0000    0.0000    0.0000 O   0  0  0  0  0  0  0  0  0  0  0  0
    0.0000    0.0000    0.0000 C   0  0  0  0  0  0  0  0  0  0  0  0
  1  2  1  0
  2  3  1  0
  3  4  2  0
  3  5  1  0
  5  6  2  0
  6  7  1  0
  7  8  1  0
  8  9  1  0
  9 10  1  0
 10 11  1  0
 11 12  1  0
 12 13  1  0
 13 14  1  0
 14 15  1  0
 15 16  1  0
 16 17  1  0
 17 18  1  0
 16 19  1  0
 19 20  2  0
 20 21  1  0
 21 22  2  0
 22 23  1  0
 23 24  1  0
 23 25  2  0
 25 26  1  0
  7 27  2  0
 27 28  1  0
 28 29  2  0
 28 30  1  0
 30 31  2  0
 30 32  1  0
 29  5  1  0
 18 13  1  0
 25 19  1  0
M  END
>  <pIC50>  (475) 
7.42

>  <ChEMBL_ID>  (475) 
CHEMBL3805434

>  <document_journal>  (475) 
Bioorg. Med. Chem. Lett.

>  <bao_endpoint>  (475) 
BAO_0000190

>  <potential_duplicate>  (475) 
None

>  <uo_units>  (475) 
UO_0000065

>  <canonical_smiles>  (475) 
CNC(=O)c1cc(OCCCCN2CCN(CC2)c3cccc(Cl)c3Cl)cc(c1)C(=O)C

>  <parent_molecule_chembl_id>  (475) 
CHEMBL3805434

>  <assay_type>  (475) 
B

>  <src_id>  (475) 
1

>  <ligand_efficiency>  (475) 
None

>  <standard_flag>  (475) 
True

>  <molecule_chembl_id>  (475) 
CHEMBL3805434

>  <target_organism>  (475) 
Homo sapiens

>  <standard_units>  (475) 
nM

>  <record_id>  (475) 
2776721

>  <document_chembl_id>  (475) 
CHEMBL3804825

>  <bao_format>  (475) 
None

>  <data_validity_description>  (475) 
None

>  <activity_id>  (475) 
16588332

>  <standard_type>  (475) 
IC50

>  <target_chembl_id>  (475) 
CHEMBL217

>  <data_validity_comment>  (475) 
None

>  <published_value>  (475) 
37.7

>  <document_year>  (475) 
2016

>  <target_pref_name>  (475) 
Dopamine D2 receptor

>  <assay_chembl_id>  (475) 
CHEMBL3806800

>  <standard_relation>  (475) 
=

>  <assay_description>  (475) 
Antagonistic activity at human dopamine D2 receptor measured after 60 mins by Ultra Lance cAMP assay

>  <published_relation>  (475) 
=

>  <standard_value>  (475) 
37.7

>  <qudt_units>  (475) 
http://www.openphacts.org/units/Nanomolar

>  <target_tax_id>  (475) 
9606

>  <bao_label>  (475) 
None

>  <published_units>  (475) 
nM

>  <pchembl_value>  (475) 
7.42

>  <published_type>  (475) 
IC50

>  <activity_comment>  (475) 
None

$$$$

     RDKit          

 30 32  0  0  0  0  0  0  0  0999 V2000
    0.0000    0.0000    0.0000 C   0  0  0  0  0  0  0  0  0  0  0  0
    0.0000    0.0000    0.0000 N   0  0  0  0  0  0  0  0  0  0  0  0
    0.0000    0.0000    0.0000 C   0  0  0  0  0  0  0  0  0  0  0  0
    0.0000    0.0000    0.0000 O   0  0  0  0  0  0  0  0  0  0  0  0
    0.0000    0.0000    0.0000 C   0  0  0  0  0  0  0  0  0  0  0  0
    0.0000    0.0000    0.0000 C   0  0  0  0  0  0  0  0  0  0  0  0
    0.0000    0.0000    0.0000 C   0  0  0  0  0  0  0  0  0  0  0  0
    0.0000    0.0000    0.0000 C   0  0  0  0  0  0  0  0  0  0  0  0
    0.0000    0.0000    0.0000 Cl  0  0  0  0  0  0  0  0  0  0  0  0
    0.0000    0.0000    0.0000 C   0  0  0  0  0  0  0  0  0  0  0  0
    0.0000    0.0000    0.0000 O   0  0  0  0  0  0  0  0  0  0  0  0
    0.0000    0.0000    0.0000 C   0  0  0  0  0  0  0  0  0  0  0  0
    0.0000    0.0000    0.0000 C   0  0  0  0  0  0  0  0  0  0  0  0
    0.0000    0.0000    0.0000 C   0  0  0  0  0  0  0  0  0  0  0  0
    0.0000    0.0000    0.0000 C   0  0  0  0  0  0  0  0  0  0  0  0
    0.0000    0.0000    0.0000 N   0  0  0  0  0  0  0  0  0  0  0  0
    0.0000    0.0000    0.0000 C   0  0  0  0  0  0  0  0  0  0  0  0
    0.0000    0.0000    0.0000 C   0  0  0  0  0  0  0  0  0  0  0  0
    0.0000    0.0000    0.0000 N   0  0  0  0  0  0  0  0  0  0  0  0
    0.0000    0.0000    0.0000 C   0  0  0  0  0  0  0  0  0  0  0  0
    0.0000    0.0000    0.0000 C   0  0  0  0  0  0  0  0  0  0  0  0
    0.0000    0.0000    0.0000 C   0  0  0  0  0  0  0  0  0  0  0  0
    0.0000    0.0000    0.0000 C   0  0  0  0  0  0  0  0  0  0  0  0
    0.0000    0.0000    0.0000 C   0  0  0  0  0  0  0  0  0  0  0  0
    0.0000    0.0000    0.0000 C   0  0  0  0  0  0  0  0  0  0  0  0
    0.0000    0.0000    0.0000 C   0  0  0  0  0  0  0  0  0  0  0  0
    0.0000    0.0000    0.0000 Cl  0  0  0  0  0  0  0  0  0  0  0  0
    0.0000    0.0000    0.0000 C   0  0  0  0  0  0  0  0  0  0  0  0
    0.0000    0.0000    0.0000 Cl  0  0  0  0  0  0  0  0  0  0  0  0
    0.0000    0.0000    0.0000 C   0  0  0  0  0  0  0  0  0  0  0  0
  1  2  1  0
  2  3  1  0
  3  4  2  0
  3  5  1  0
  5  6  2  0
  6  7  1  0
  7  8  2  0
  8  9  1  0
  8 10  1  0
 10 11  1  0
 11 12  1  0
 12 13  1  0
 13 14  1  0
 14 15  1  0
 15 16  1  0
 16 17  1  0
 17 18  1  0
 18 19  1  0
 19 20  1  0
 20 21  1  0
 19 22  1  0
 22 23  2  0
 23 24  1  0
 24 25  2  0
 25 26  1  0
 26 27  1  0
 26 28  2  0
 28 29  1  0
 10 30  2  0
 30  5  1  0
 21 16  1  0
 28 22  1  0
M  END
>  <pIC50>  (476) 
7.23

>  <ChEMBL_ID>  (476) 
CHEMBL3805327

>  <document_journal>  (476) 
Bioorg. Med. Chem. Lett.

>  <bao_endpoint>  (476) 
BAO_0000190

>  <potential_duplicate>  (476) 
None

>  <uo_units>  (476) 
UO_0000065

>  <canonical_smiles>  (476) 
CNC(=O)c1ccc(Cl)c(OCCCCN2CCN(CC2)c3cccc(Cl)c3Cl)c1

>  <parent_molecule_chembl_id>  (476) 
CHEMBL3805327

>  <assay_type>  (476) 
B

>  <src_id>  (476) 
1

>  <ligand_efficiency>  (476) 
None

>  <standard_flag>  (476) 
True

>  <molecule_chembl_id>  (476) 
CHEMBL3805327

>  <target_organism>  (476) 
Homo sapiens

>  <standard_units>  (476) 
nM

>  <record_id>  (476) 
2776722

>  <document_chembl_id>  (476) 
CHEMBL3804825

>  <bao_format>  (476) 
None

>  <data_validity_description>  (476) 
None

>  <activity_id>  (476) 
16588335

>  <standard_type>  (476) 
IC50

>  <target_chembl_id>  (476) 
CHEMBL217

>  <data_validity_comment>  (476) 
None

>  <published_value>  (476) 
58.5

>  <document_year>  (476) 
2016

>  <target_pref_name>  (476) 
Dopamine D2 receptor

>  <assay_chembl_id>  (476) 
CHEMBL3806800

>  <standard_relation>  (476) 
=

>  <assay_description>  (476) 
Antagonistic activity at human dopamine D2 receptor measured after 60 mins by Ultra Lance cAMP assay

>  <published_relation>  (476) 
=

>  <standard_value>  (476) 
58.5

>  <qudt_units>  (476) 
http://www.openphacts.org/units/Nanomolar

>  <target_tax_id>  (476) 
9606

>  <bao_label>  (476) 
None

>  <published_units>  (476) 
nM

>  <pchembl_value>  (476) 
7.23

>  <published_type>  (476) 
IC50

>  <activity_comment>  (476) 
None

$$$$

     RDKit          

 30 32  0  0  0  0  0  0  0  0999 V2000
    0.0000    0.0000    0.0000 C   0  0  0  0  0  0  0  0  0  0  0  0
    0.0000    0.0000    0.0000 N   0  0  0  0  0  0  0  0  0  0  0  0
    0.0000    0.0000    0.0000 C   0  0  0  0  0  0  0  0  0  0  0  0
    0.0000    0.0000    0.0000 O   0  0  0  0  0  0  0  0  0  0  0  0
    0.0000    0.0000    0.0000 C   0  0  0  0  0  0  0  0  0  0  0  0
    0.0000    0.0000    0.0000 C   0  0  0  0  0  0  0  0  0  0  0  0
    0.0000    0.0000    0.0000 C   0  0  0  0  0  0  0  0  0  0  0  0
    0.0000    0.0000    0.0000 F   0  0  0  0  0  0  0  0  0  0  0  0
    0.0000    0.0000    0.0000 C   0  0  0  0  0  0  0  0  0  0  0  0
    0.0000    0.0000    0.0000 C   0  0  0  0  0  0  0  0  0  0  0  0
    0.0000    0.0000    0.0000 O   0  0  0  0  0  0  0  0  0  0  0  0
    0.0000    0.0000    0.0000 C   0  0  0  0  0  0  0  0  0  0  0  0
    0.0000    0.0000    0.0000 C   0  0  0  0  0  0  0  0  0  0  0  0
    0.0000    0.0000    0.0000 C   0  0  0  0  0  0  0  0  0  0  0  0
    0.0000    0.0000    0.0000 C   0  0  0  0  0  0  0  0  0  0  0  0
    0.0000    0.0000    0.0000 N   0  0  0  0  0  0  0  0  0  0  0  0
    0.0000    0.0000    0.0000 C   0  0  0  0  0  0  0  0  0  0  0  0
    0.0000    0.0000    0.0000 C   0  0  0  0  0  0  0  0  0  0  0  0
    0.0000    0.0000    0.0000 N   0  0  0  0  0  0  0  0  0  0  0  0
    0.0000    0.0000    0.0000 C   0  0  0  0  0  0  0  0  0  0  0  0
    0.0000    0.0000    0.0000 C   0  0  0  0  0  0  0  0  0  0  0  0
    0.0000    0.0000    0.0000 C   0  0  0  0  0  0  0  0  0  0  0  0
    0.0000    0.0000    0.0000 C   0  0  0  0  0  0  0  0  0  0  0  0
    0.0000    0.0000    0.0000 C   0  0  0  0  0  0  0  0  0  0  0  0
    0.0000    0.0000    0.0000 C   0  0  0  0  0  0  0  0  0  0  0  0
    0.0000    0.0000    0.0000 C   0  0  0  0  0  0  0  0  0  0  0  0
    0.0000    0.0000    0.0000 Cl  0  0  0  0  0  0  0  0  0  0  0  0
    0.0000    0.0000    0.0000 C   0  0  0  0  0  0  0  0  0  0  0  0
    0.0000    0.0000    0.0000 Cl  0  0  0  0  0  0  0  0  0  0  0  0
    0.0000    0.0000    0.0000 C   0  0  0  0  0  0  0  0  0  0  0  0
  1  2  1  0
  2  3  1  0
  3  4  2  0
  3  5  1  0
  5  6  2  0
  6  7  1  0
  7  8  1  0
  7  9  2  0
  9 10  1  0
 10 11  1  0
 11 12  1  0
 12 13  1  0
 13 14  1  0
 14 15  1  0
 15 16  1  0
 16 17  1  0
 17 18  1  0
 18 19  1  0
 19 20  1  0
 20 21  1  0
 19 22  1  0
 22 23  2  0
 23 24  1  0
 24 25  2  0
 25 26  1  0
 26 27  1  0
 26 28  2  0
 28 29  1  0
 10 30  2  0
 30  5  1  0
 21 16  1  0
 28 22  1  0
M  END
>  <pIC50>  (477) 
5.8

>  <ChEMBL_ID>  (477) 
CHEMBL3805262

>  <document_journal>  (477) 
Bioorg. Med. Chem. Lett.

>  <bao_endpoint>  (477) 
BAO_0000190

>  <potential_duplicate>  (477) 
None

>  <uo_units>  (477) 
UO_0000065

>  <canonical_smiles>  (477) 
CNC(=O)c1cc(F)cc(OCCCCN2CCN(CC2)c3cccc(Cl)c3Cl)c1

>  <parent_molecule_chembl_id>  (477) 
CHEMBL3805262

>  <assay_type>  (477) 
B

>  <src_id>  (477) 
1

>  <ligand_efficiency>  (477) 
None

>  <standard_flag>  (477) 
True

>  <molecule_chembl_id>  (477) 
CHEMBL3805262

>  <target_organism>  (477) 
Homo sapiens

>  <standard_units>  (477) 
nM

>  <record_id>  (477) 
2776723

>  <document_chembl_id>  (477) 
CHEMBL3804825

>  <bao_format>  (477) 
None

>  <data_validity_description>  (477) 
None

>  <activity_id>  (477) 
16588338

>  <standard_type>  (477) 
IC50

>  <target_chembl_id>  (477) 
CHEMBL217

>  <data_validity_comment>  (477) 
None

>  <published_value>  (477) 
1580

>  <document_year>  (477) 
2016

>  <target_pref_name>  (477) 
Dopamine D2 receptor

>  <assay_chembl_id>  (477) 
CHEMBL3806800

>  <standard_relation>  (477) 
=

>  <assay_description>  (477) 
Antagonistic activity at human dopamine D2 receptor measured after 60 mins by Ultra Lance cAMP assay

>  <published_relation>  (477) 
=

>  <standard_value>  (477) 
1580

>  <qudt_units>  (477) 
http://www.openphacts.org/units/Nanomolar

>  <target_tax_id>  (477) 
9606

>  <bao_label>  (477) 
None

>  <published_units>  (477) 
nM

>  <pchembl_value>  (477) 
5.8

>  <published_type>  (477) 
IC50

>  <activity_comment>  (477) 
None

$$$$

     RDKit          

 31 33  0  0  0  0  0  0  0  0999 V2000
    0.0000    0.0000    0.0000 C   0  0  0  0  0  0  0  0  0  0  0  0
    0.0000    0.0000    0.0000 N   0  0  0  0  0  0  0  0  0  0  0  0
    0.0000    0.0000    0.0000 C   0  0  0  0  0  0  0  0  0  0  0  0
    0.0000    0.0000    0.0000 O   0  0  0  0  0  0  0  0  0  0  0  0
    0.0000    0.0000    0.0000 C   0  0  0  0  0  0  0  0  0  0  0  0
    0.0000    0.0000    0.0000 C   0  0  0  0  0  0  0  0  0  0  0  0
    0.0000    0.0000    0.0000 C   0  0  0  0  0  0  0  0  0  0  0  0
    0.0000    0.0000    0.0000 C   0  0  0  0  0  0  0  0  0  0  0  0
    0.0000    0.0000    0.0000 C   0  0  0  0  0  0  0  0  0  0  0  0
    0.0000    0.0000    0.0000 O   0  0  0  0  0  0  0  0  0  0  0  0
    0.0000    0.0000    0.0000 C   0  0  0  0  0  0  0  0  0  0  0  0
    0.0000    0.0000    0.0000 C   0  0  0  0  0  0  0  0  0  0  0  0
    0.0000    0.0000    0.0000 C   0  0  0  0  0  0  0  0  0  0  0  0
    0.0000    0.0000    0.0000 C   0  0  0  0  0  0  0  0  0  0  0  0
    0.0000    0.0000    0.0000 N   0  0  0  0  0  0  0  0  0  0  0  0
    0.0000    0.0000    0.0000 C   0  0  0  0  0  0  0  0  0  0  0  0
    0.0000    0.0000    0.0000 C   0  0  0  0  0  0  0  0  0  0  0  0
    0.0000    0.0000    0.0000 N   0  0  0  0  0  0  0  0  0  0  0  0
    0.0000    0.0000    0.0000 C   0  0  0  0  0  0  0  0  0  0  0  0
    0.0000    0.0000    0.0000 C   0  0  0  0  0  0  0  0  0  0  0  0
    0.0000    0.0000    0.0000 C   0  0  0  0  0  0  0  0  0  0  0  0
    0.0000    0.0000    0.0000 C   0  0  0  0  0  0  0  0  0  0  0  0
    0.0000    0.0000    0.0000 C   0  0  0  0  0  0  0  0  0  0  0  0
    0.0000    0.0000    0.0000 C   0  0  0  0  0  0  0  0  0  0  0  0
    0.0000    0.0000    0.0000 C   0  0  0  0  0  0  0  0  0  0  0  0
    0.0000    0.0000    0.0000 Cl  0  0  0  0  0  0  0  0  0  0  0  0
    0.0000    0.0000    0.0000 C   0  0  0  0  0  0  0  0  0  0  0  0
    0.0000    0.0000    0.0000 Cl  0  0  0  0  0  0  0  0  0  0  0  0
    0.0000    0.0000    0.0000 C   0  0  0  0  0  0  0  0  0  0  0  0
    0.0000    0.0000    0.0000 O   0  0  0  0  0  0  0  0  0  0  0  0
    0.0000    0.0000    0.0000 C   0  0  0  0  0  0  0  0  0  0  0  0
  1  2  1  0
  2  3  1  0
  3  4  2  0
  3  5  1  0
  5  6  2  0
  6  7  1  0
  7  8  2  0
  8  9  1  0
  9 10  1  0
 10 11  1  0
 11 12  1  0
 12 13  1  0
 13 14  1  0
 14 15  1  0
 15 16  1  0
 16 17  1  0
 17 18  1  0
 18 19  1  0
 19 20  1  0
 18 21  1  0
 21 22  2  0
 22 23  1  0
 23 24  2  0
 24 25  1  0
 25 26  1  0
 25 27  2  0
 27 28  1  0
  9 29  2  0
 29 30  1  0
 30 31  1  0
 29  5  1  0
 20 15  1  0
 27 21  1  0
M  END
>  <pIC50>  (478) 
6.7

>  <ChEMBL_ID>  (478) 
CHEMBL3805515

>  <document_journal>  (478) 
Bioorg. Med. Chem. Lett.

>  <bao_endpoint>  (478) 
BAO_0000190

>  <potential_duplicate>  (478) 
None

>  <uo_units>  (478) 
UO_0000065

>  <canonical_smiles>  (478) 
CNC(=O)c1cccc(OCCCCN2CCN(CC2)c3cccc(Cl)c3Cl)c1OC

>  <parent_molecule_chembl_id>  (478) 
CHEMBL3805515

>  <assay_type>  (478) 
B

>  <src_id>  (478) 
1

>  <ligand_efficiency>  (478) 
None

>  <standard_flag>  (478) 
True

>  <molecule_chembl_id>  (478) 
CHEMBL3805515

>  <target_organism>  (478) 
Homo sapiens

>  <standard_units>  (478) 
nM

>  <record_id>  (478) 
2776724

>  <document_chembl_id>  (478) 
CHEMBL3804825

>  <bao_format>  (478) 
None

>  <data_validity_description>  (478) 
None

>  <activity_id>  (478) 
16588341

>  <standard_type>  (478) 
IC50

>  <target_chembl_id>  (478) 
CHEMBL217

>  <data_validity_comment>  (478) 
None

>  <published_value>  (478) 
202

>  <document_year>  (478) 
2016

>  <target_pref_name>  (478) 
Dopamine D2 receptor

>  <assay_chembl_id>  (478) 
CHEMBL3806800

>  <standard_relation>  (478) 
=

>  <assay_description>  (478) 
Antagonistic activity at human dopamine D2 receptor measured after 60 mins by Ultra Lance cAMP assay

>  <published_relation>  (478) 
=

>  <standard_value>  (478) 
202

>  <qudt_units>  (478) 
http://www.openphacts.org/units/Nanomolar

>  <target_tax_id>  (478) 
9606

>  <bao_label>  (478) 
None

>  <published_units>  (478) 
nM

>  <pchembl_value>  (478) 
6.7

>  <published_type>  (478) 
IC50

>  <activity_comment>  (478) 
None

$$$$

     RDKit          

 30 32  0  0  0  0  0  0  0  0999 V2000
    0.0000    0.0000    0.0000 C   0  0  0  0  0  0  0  0  0  0  0  0
    0.0000    0.0000    0.0000 N   0  0  0  0  0  0  0  0  0  0  0  0
    0.0000    0.0000    0.0000 C   0  0  0  0  0  0  0  0  0  0  0  0
    0.0000    0.0000    0.0000 O   0  0  0  0  0  0  0  0  0  0  0  0
    0.0000    0.0000    0.0000 C   0  0  0  0  0  0  0  0  0  0  0  0
    0.0000    0.0000    0.0000 C   0  0  0  0  0  0  0  0  0  0  0  0
    0.0000    0.0000    0.0000 C   0  0  0  0  0  0  0  0  0  0  0  0
    0.0000    0.0000    0.0000 C   0  0  0  0  0  0  0  0  0  0  0  0
    0.0000    0.0000    0.0000 C   0  0  0  0  0  0  0  0  0  0  0  0
    0.0000    0.0000    0.0000 O   0  0  0  0  0  0  0  0  0  0  0  0
    0.0000    0.0000    0.0000 C   0  0  0  0  0  0  0  0  0  0  0  0
    0.0000    0.0000    0.0000 C   0  0  0  0  0  0  0  0  0  0  0  0
    0.0000    0.0000    0.0000 C   0  0  0  0  0  0  0  0  0  0  0  0
    0.0000    0.0000    0.0000 C   0  0  0  0  0  0  0  0  0  0  0  0
    0.0000    0.0000    0.0000 N   0  0  0  0  0  0  0  0  0  0  0  0
    0.0000    0.0000    0.0000 C   0  0  0  0  0  0  0  0  0  0  0  0
    0.0000    0.0000    0.0000 C   0  0  0  0  0  0  0  0  0  0  0  0
    0.0000    0.0000    0.0000 N   0  0  0  0  0  0  0  0  0  0  0  0
    0.0000    0.0000    0.0000 C   0  0  0  0  0  0  0  0  0  0  0  0
    0.0000    0.0000    0.0000 C   0  0  0  0  0  0  0  0  0  0  0  0
    0.0000    0.0000    0.0000 C   0  0  0  0  0  0  0  0  0  0  0  0
    0.0000    0.0000    0.0000 C   0  0  0  0  0  0  0  0  0  0  0  0
    0.0000    0.0000    0.0000 C   0  0  0  0  0  0  0  0  0  0  0  0
    0.0000    0.0000    0.0000 C   0  0  0  0  0  0  0  0  0  0  0  0
    0.0000    0.0000    0.0000 C   0  0  0  0  0  0  0  0  0  0  0  0
    0.0000    0.0000    0.0000 Cl  0  0  0  0  0  0  0  0  0  0  0  0
    0.0000    0.0000    0.0000 C   0  0  0  0  0  0  0  0  0  0  0  0
    0.0000    0.0000    0.0000 Cl  0  0  0  0  0  0  0  0  0  0  0  0
    0.0000    0.0000    0.0000 C   0  0  0  0  0  0  0  0  0  0  0  0
    0.0000    0.0000    0.0000 F   0  0  0  0  0  0  0  0  0  0  0  0
  1  2  1  0
  2  3  1  0
  3  4  2  0
  3  5  1  0
  5  6  2  0
  6  7  1  0
  7  8  2  0
  8  9  1  0
  9 10  1  0
 10 11  1  0
 11 12  1  0
 12 13  1  0
 13 14  1  0
 14 15  1  0
 15 16  1  0
 16 17  1  0
 17 18  1  0
 18 19  1  0
 19 20  1  0
 18 21  1  0
 21 22  2  0
 22 23  1  0
 23 24  2  0
 24 25  1  0
 25 26  1  0
 25 27  2  0
 27 28  1  0
  9 29  2  0
 29 30  1  0
 29  5  1  0
 20 15  1  0
 27 21  1  0
M  END
>  <pIC50>  (479) 
6.77

>  <ChEMBL_ID>  (479) 
CHEMBL3805046

>  <document_journal>  (479) 
Bioorg. Med. Chem. Lett.

>  <bao_endpoint>  (479) 
BAO_0000190

>  <potential_duplicate>  (479) 
None

>  <uo_units>  (479) 
UO_0000065

>  <canonical_smiles>  (479) 
CNC(=O)c1cccc(OCCCCN2CCN(CC2)c3cccc(Cl)c3Cl)c1F

>  <parent_molecule_chembl_id>  (479) 
CHEMBL3805046

>  <assay_type>  (479) 
B

>  <src_id>  (479) 
1

>  <ligand_efficiency>  (479) 
None

>  <standard_flag>  (479) 
True

>  <molecule_chembl_id>  (479) 
CHEMBL3805046

>  <target_organism>  (479) 
Homo sapiens

>  <standard_units>  (479) 
nM

>  <record_id>  (479) 
2776855

>  <document_chembl_id>  (479) 
CHEMBL3804825

>  <bao_format>  (479) 
None

>  <data_validity_description>  (479) 
None

>  <activity_id>  (479) 
16588344

>  <standard_type>  (479) 
IC50

>  <target_chembl_id>  (479) 
CHEMBL217

>  <data_validity_comment>  (479) 
None

>  <published_value>  (479) 
171

>  <document_year>  (479) 
2016

>  <target_pref_name>  (479) 
Dopamine D2 receptor

>  <assay_chembl_id>  (479) 
CHEMBL3806800

>  <standard_relation>  (479) 
=

>  <assay_description>  (479) 
Antagonistic activity at human dopamine D2 receptor measured after 60 mins by Ultra Lance cAMP assay

>  <published_relation>  (479) 
=

>  <standard_value>  (479) 
171

>  <qudt_units>  (479) 
http://www.openphacts.org/units/Nanomolar

>  <target_tax_id>  (479) 
9606

>  <bao_label>  (479) 
None

>  <published_units>  (479) 
nM

>  <pchembl_value>  (479) 
6.77

>  <published_type>  (479) 
IC50

>  <activity_comment>  (479) 
None

$$$$
